# ========================
# Tonto generated CIF file
# ========================

# NOTE: This is an incomplete CIF file
# Manually edit it to pass checkCIF

data_my_job

_audit_creation_date                2018-4-20
_audit_creation_method              'Tonto 18.04.19 github v. 61a3969'

# ============
# QCr software
# ============

_QCr_software                       'Tonto'
_QCr_software_version               '18.04.19 v. 61a3969'
_QCr_software_platform              'Linux-4.4.0-98-generic'
_QCr_software_build_date            '2018-04-19 16:02'
_QCr_software_website               'https://github.com/dylan-jayatilaka/tonto'

# ===========
# Publication
# ===========

_publ_contact_author
;
    Prof. Dr. Sir Tonto Magnifico
;
_publ_contact_author_email          'tonto.magnifico@gmail.com'
_publ_contact_author_phone          '+61 8 6488 3138'
_publ_requested_journal             'IUCrJ'
_publ_section_title
;
   'Hirshfeld atom-refinement (HAR) for my_job'
   'X-ray wavefunction refinement (XWR) for my_job'
   Tonto Magnifico, IUCrJ (XXXX)
;

loop_
    _publ_author_name
    'Tonto Magnifico'

_publ_author_address
;
    Prof. Dr. Sir Tonto Magnifico
    1 El Camino Ciberespacio
    Tierra Austral del Espiritu Santo
;

# ========
# Chemical
# ========

_chemical_name_common               my_job
_chemical_formula_sum               'C14 H8 O3'
_chemical_formula_moiety            'C14 H8 O3'
_chemical_formula_weight            224.2181
_chemical_compound_source           'see text'
_chemical_absolute_configuration    unk

# ==========
# QCr method
# ==========

_QCr_calc_method                    'Hartree-Fock'
_QCr_calc_spinorbital_kind          'restricted'
_QCr_calc_gaussian_basis_set        'custom?'
_QCr_calc_gaussian_basis_set_kind   'cartesian'
_QCr_calc_basis_max_l               '1'

_QCr_calc_unit                      'See _atom_site_* in tonto.cif2'
_QCr_calc_unit_spin_multiplicity    1
_QCr_calc_unit_n_electrons          116
_QCr_calc_unit_n_alpha_electrons    58
_QCr_calc_unit_n_beta_electrons     58

# =======
# Crystal
# =======

_exptl_crystal_description          ?
_exptl_crystal_colour               ?
_exptl_crystal_size_max             ?
_exptl_crystal_size_mid             ?
_exptl_crystal_size_min             ?
_exptl_crystal_density_diffrn       ?

# ==============
# Absortion data
# ==============

_exptl_absorpt_coefficient_mu       ?
_exptl_absorpt_correction_type      'none'
_exptl_absorpt_process_details      ?
_exptl_absorpt_correction_T_min     ?
_exptl_absorpt_correction_T_max     ?

# ========
# Symmetry
# ========

_symmetry_cell_setting              Monoclinic
_symmetry_space_group_name_H-M      'p 1 21/n 1'
_symmetry_space_group_name_Hall     '-p 2yn'
_symmetry_Int_Tables_number         '14'

loop_
    _symmetry_equiv_pos_as_xyz
'+x, +y, +z'
'-x, -y, -z'
'-x+1/2, +y+1/2, -z+1/2'
'+x+1/2, -y+1/2, +z+1/2'

# =========
# Unit cell
# =========

_cell_measurement_temperature  ?
_cell_measurement_reflns_used  ?
_cell_measurement_theta_min    ?
_cell_measurement_theta_max    ?

_cell_length_a                    3.7170(10)
_cell_length_b                     19.513(6)
_cell_length_c                     13.440(4)
_cell_angle_alpha               90.000000(0)
_cell_angle_beta                   97.107(5)
_cell_angle_gamma               90.000000(0)
_cell_volume                        967.3(5)

_cell_formula_units_Z               4.000000

_atom_sites_solution_hydrogens      HAR

# ===============
# Refinement data
# ===============

_refine_ls_kind                     'Hirshfeld atom refinement (HAR)'
_refine_ls_method_description
;
   S.C. Capelli, H.-B. Burgi, B. Dittrich, S.Grabowsky
   and Dylan Jayatilaka, IUCrJ (2014). 1, 361-379
;
_refine_QCr_Psi_constraint          'none'

_refine_ls_SVD_threshold            0.1E-02
_refine_ls_coordinate_system        cartesian
_refine_ls_structure_factor_coeff   F
_refine_ls_matrix_type              full
_refine_ls_R_factor_gt              0.0445
_refine_ls_R_factor_all             0.0445
_refine_ls_wR_factor_gt             0.0274
_refine_ls_wR_factor_all            0.0274
_refine_ls_R_Fsqd_factor            0.0520
_refine_ls_goodness_of_fit_gt       1.4648
_refine_ls_goodness_of_fit_all      1.4648
_refine_ls_number_reflns            904
_refine_ls_number_parameters        226
_refine_ls_number_restraints        0
_refine_ls_number_constraints       0
_refine_ls_hydrogen_treatment       refall
_refine_ls_weighting_scheme         sigma
_refine_ls_weighting_details        'w=1/\s(F)'
_refine_ls_shift/su_conv_tol        0.0100
_refine_ls_shift/su_max             0.0000
_refine_ls_shift/su_max_mean        0.0000
_refine_ls_shift/su_max_par         ''
_refine_ls_extinction_method        none

_refine_diff_density_max            0.1344
_refine_diff_density_min            -0.1299
_refine_diff_density_rms            0.0312
_refine_diff_density_max_atom       0.0620
_refine_diff_density_max_atom_tag   O10
_refine_diff_density_min_atom       -0.0598
_refine_diff_density_min_atom_tag   C8A
_refine_diff_density_rms_atom       0.0324

_refine_special_details
;
. If constraints were applied they are defined by zero
  eigenvalues of the least-squares hessian, see the
  value of _refine_ls_SVD_threshold
;

# =====================================
# Precise fractional system coordinates
# =====================================

# . These precise data use non-standard CIF tags
# . Non-standard tags shadow standard tags to avoid duplication
# . Please keep for a better refinement restart
# . Better yet, use the refined cartesian parameters

loop_
_atom_site_Cryst_label
_atom_site_Cryst_x
_atom_site_Cryst_y
_atom_site_Cryst_z
_atom_site_Cryst_U_iso_or_equiv
_atom_site_Cryst_adp_type
_atom_site_Cryst_occupancy
_atom_site_Cryst_disorder_group
_atom_site_Cryst_x_esu
_atom_site_Cryst_y_esu
_atom_site_Cryst_z_esu
_atom_site_Cryst_U_iso_or_equiv_esu
   C1  0.598889   0.209147  0.936191  0.022240  Uani  1.000000  0
       0.000740   0.000183  0.000244  0.002129
   C2  0.736321   0.262110  0.881474  0.025188  Uani  1.000000  0
       0.000844   0.000224  0.000308  0.002315
   H2  0.842565   0.311243  0.912672  0.079074  Uani  1.000000  0
       0.011747   0.002329  0.002544  0.037828
   C3  0.726763   0.241311  0.779537  0.024109  Uani  1.000000  0
       0.000793   0.000184  0.000283  0.002236
   H3  0.834826   0.275448  0.718787  0.044877  Uani  1.000000  0
       0.007030   0.001625  0.002349  0.024373
  C3A  0.584183   0.175225  0.771680  0.020413  Uani  1.000000  0
       0.000732   0.000180  0.000237  0.002088
   C4  0.518625   0.131024  0.683292  0.023215  Uani  1.000000  0
       0.000793   0.000180  0.000245  0.002140
   O4  0.586555   0.148349  0.601330  0.032071  Uani  1.000000  0
       0.000546   0.000125  0.000164  0.001634
  C4A  0.368054   0.061670  0.701484  0.020339  Uani  1.000000  0
       0.000733   0.000182  0.000244  0.001987
   C5  0.309645   0.015408  0.623021  0.027091  Uani  1.000000  0
       0.000936   0.000217  0.000309  0.002489
   H5  0.387651   0.024893  0.553630  0.032338  Uani  1.000000  0
       0.006763   0.001769  0.002602  0.023839
   C6  0.185245  -0.049930  0.637871  0.029783  Uani  1.000000  0
       0.000899   0.000244  0.000308  0.002533
   H6  0.161206  -0.084166  0.579784  0.069031  Uani  1.000000  0
       0.009231   0.001757  0.003511  0.036360
   C7  0.113962  -0.069880  0.732771  0.029925  Uani  1.000000  0
       0.001025   0.000231  0.000309  0.002499
   H7  0.021293  -0.117006  0.743992  0.062720  Uani  1.000000  0
       0.009212   0.002312  0.002880  0.031290
   C8  0.164594  -0.024071  0.812204  0.024210  Uani  1.000000  0
       0.000800   0.000191  0.000293  0.002214
   H8  0.091795  -0.042175  0.888709  0.016777  Uani  1.000000  0
       0.005529   0.001465  0.002203  0.020218
  C8A  0.291389   0.041495  0.797555  0.019181  Uani  1.000000  0
       0.000719   0.000168  0.000240  0.001985
   C9  0.354190   0.089380  0.882134  0.019557  Uani  1.000000  0
       0.000729   0.000172  0.000250  0.002080
   O9  0.269502   0.069413  0.967634  0.026846  Uani  1.000000  0
       0.000517   0.000131  0.000168  0.001517
  C9A  0.501845   0.153412  0.867606  0.019100  Uani  1.000000  0
       0.000731   0.000173  0.000225  0.001951
  C10  0.554718   0.211907  1.038962  0.027072  Uani  1.000000  0
       0.001101   0.000241  0.000308  0.002578
  H10  0.592937   0.254522  1.075755  0.088338  Uani  1.000000  0
       0.008549   0.002401  0.004392  0.041930
  O10  0.426501   0.165931  1.085473  0.031289  Uani  1.000000  0
       0.000583   0.000133  0.000184  0.001603
   H9  0.331512   0.116491  1.026719  0.028630  Uani  1.000000  0
       0.010228   0.001569  0.003192  0.029275

# ======================
# Fractional coordinates
# ======================

loop_
_atom_site_label
_atom_site_fract_x
_atom_site_fract_y
_atom_site_fract_z
_atom_site_U_iso_or_equiv
_atom_site_adp_type
_atom_site_occupancy
_atom_site_disorder_group
   C1  0.5989(7)    0.20915(18)  0.9362(2)    0.022(2)    Uani  1.000000  0
   C2  0.7363(8)    0.2621(2)    0.8815(3)    0.025(2)    Uani  1.000000  0
   H2  0.843(12)    0.311(2)     0.913(3)     0.08(4)     Uani  1.000000  0
   C3  0.7268(8)    0.24131(18)  0.7795(3)    0.024(2)    Uani  1.000000  0
   H3  0.835(7)     0.2754(16)   0.719(2)     0.04(2)     Uani  1.000000  0
  C3A  0.5842(7)    0.17523(18)  0.7717(2)    0.020(2)    Uani  1.000000  0
   C4  0.5186(8)    0.13102(18)  0.6833(2)    0.023(2)    Uani  1.000000  0
   O4  0.5866(5)    0.14835(12)  0.60133(16)  0.0321(16)  Uani  1.000000  0
  C4A  0.3681(7)    0.06167(18)  0.7015(2)    0.020(2)    Uani  1.000000  0
   C5  0.3096(9)    0.0154(2)    0.6230(3)    0.027(2)    Uani  1.000000  0
   H5  0.388(7)     0.0249(18)   0.554(3)     0.03(2)     Uani  1.000000  0
   C6  0.1852(9)   -0.0499(2)    0.6379(3)    0.030(3)    Uani  1.000000  0
   H6  0.161(9)    -0.0842(18)   0.580(4)     0.07(4)     Uani  1.000000  0
   C7  0.1140(10)  -0.0699(2)    0.7328(3)    0.030(2)    Uani  1.000000  0
   H7  0.021(9)    -0.117(2)     0.744(3)     0.06(3)     Uani  1.000000  0
   C8  0.1646(8)   -0.02407(19)  0.8122(3)    0.024(2)    Uani  1.000000  0
   H8  0.092(6)    -0.0422(15)   0.889(2)     0.02(2)     Uani  1.000000  0
  C8A  0.2914(7)    0.04149(17)  0.7976(2)    0.019(2)    Uani  1.000000  0
   C9  0.3542(7)    0.08938(17)  0.8821(3)    0.020(2)    Uani  1.000000  0
   O9  0.2695(5)    0.06941(13)  0.96763(17)  0.0268(15)  Uani  1.000000  0
  C9A  0.5018(7)    0.15341(17)  0.8676(2)    0.019(2)    Uani  1.000000  0
  C10  0.5547(11)   0.2119(2)    1.0390(3)    0.027(3)    Uani  1.000000  0
  H10  0.593(9)     0.255(2)     1.076(4)     0.09(4)     Uani  1.000000  0
  O10  0.4265(6)    0.16593(13)  1.08547(18)  0.0313(16)  Uani  1.000000  0
   H9  0.332(10)    0.1165(16)   1.027(3)     0.03(3)     Uani  1.000000  0

# ==================================
# Precise cartesian axis system ADPs
# ==================================

# . These precise data use non-standard CIF tags
# . Non-standard tags shadow standard tags to avoid duplication
# . Keep these for a refinement restart
# . Better yet, use the refined cartesian parameters

loop_
_atom_site_Cryst_ADP2_U_label
_atom_site_Cryst_ADP2_U_11
_atom_site_Cryst_ADP2_U_22
_atom_site_Cryst_ADP2_U_33
_atom_site_Cryst_ADP2_U_12
_atom_site_Cryst_ADP2_U_13
_atom_site_Cryst_ADP2_U_23
_atom_site_Cryst_ADP2_U_11_esu
_atom_site_Cryst_ADP2_U_22_esu
_atom_site_Cryst_ADP2_U_33_esu
_atom_site_Cryst_ADP2_U_12_esu
_atom_site_Cryst_ADP2_U_13_esu
_atom_site_Cryst_ADP2_U_23_esu
   C1   0.018564   0.025817   0.021336   0.005426  -0.001526   0.001709
        0.001800   0.002334   0.002233   0.001343   0.001432   0.001609
   C2   0.024870   0.022319   0.028070   0.005703   0.002054   0.004149
        0.001869   0.002543   0.002517   0.001514   0.001479   0.002012
   H2   0.213662   0.031579  -0.009235   0.045332   0.007808   0.002183
        0.050227   0.035746   0.028187   0.025956   0.022187   0.021980
   C3   0.023404   0.018732   0.030350   0.003114   0.003964  -0.002297
        0.001891   0.002272   0.002537   0.001470   0.001560   0.001818
   H3   0.039528   0.063485   0.041667   0.046984   0.045017   0.071984
        0.018238   0.030391   0.026233   0.015804   0.017538   0.022087
  C3A   0.022131   0.019367   0.020035   0.004537   0.003787   0.004490
        0.001761   0.002383   0.002137   0.001314   0.001349   0.001590
   C4   0.024877   0.025318   0.019814   0.008061   0.004219   0.007687
        0.001847   0.002406   0.002160   0.001379   0.001379   0.001652
   O4   0.050570   0.029887   0.017587   0.001079   0.011495   0.004149
        0.001536   0.001770   0.001616   0.001038   0.001072   0.001219
  C4A   0.019000   0.021621   0.020237   0.003058   0.001797   0.000026
        0.001713   0.002304   0.001941   0.001296   0.001302   0.001627
   C5   0.027805   0.029677   0.022716   0.004421  -0.001157  -0.002391
        0.002170   0.002809   0.002513   0.001696   0.001636   0.002065
   H5   0.009067   0.028834   0.052905  -0.017600  -0.020874  -0.007187
        0.018655   0.024013   0.028341   0.013776   0.015542   0.020333
   C6   0.031494   0.024278   0.032342   0.001901  -0.000968  -0.008057
        0.002131   0.002868   0.002589   0.001614   0.001603   0.002065
   H6   0.149920  -0.031748   0.077321  -0.002922  -0.032107   0.024304
        0.043715   0.022863   0.040691   0.016850   0.024743   0.020478
   C7   0.029928   0.023567   0.034895  -0.001716  -0.001508   0.000822
        0.002285   0.002634   0.002537   0.001677   0.001697   0.002244
   H7   0.058646   0.087059   0.030521  -0.045404  -0.041976   0.011293
        0.028924   0.038865   0.024518   0.023580   0.017122   0.023517
   C8   0.023977   0.021711   0.025984  -0.001461  -0.000721  -0.001770
        0.001899   0.002394   0.002331   0.001465   0.001562   0.001941
   H8  -0.014595   0.036605   0.024440   0.012704  -0.014839  -0.008872
        0.014605   0.024802   0.020798   0.011889   0.012328   0.017234
  C8A   0.015708   0.022175   0.019032  -0.000090  -0.000346   0.001681
        0.001697   0.002265   0.002011   0.001282   0.001266   0.001552
   C9   0.019060   0.021487   0.018504   0.002980   0.003835   0.006109
        0.001805   0.002368   0.002063   0.001296   0.001328   0.001622
   O9   0.032494   0.026080   0.022689   0.000430   0.006299   0.007204
        0.001369   0.001731   0.001453   0.000993   0.000982   0.001306
  C9A   0.018408   0.021449   0.016944   0.004381   0.000202   0.002008
        0.001668   0.002234   0.001952   0.001330   0.001263   0.001625
  C10   0.033136   0.028235   0.020138   0.002271   0.004465   0.002656
        0.002292   0.003077   0.002414   0.001955   0.001638   0.002194
  H10   0.020065   0.039507   0.192284  -0.012808  -0.039223   0.061172
        0.024428   0.032195   0.066531   0.021656   0.027144   0.031954
  O10   0.042719   0.031963   0.019814   0.002171   0.006365   0.000355
        0.001464   0.001830   0.001534   0.001183   0.001035   0.001414
   H9   0.135006  -0.064228   0.011914   0.001631  -0.003637  -0.050763
        0.039837   0.019526   0.028296   0.015329   0.019553   0.020113

# ====
# ADPs
# ====

loop_
_atom_site_aniso_label
_atom_site_aniso_U_11
_atom_site_aniso_U_22
_atom_site_aniso_U_33
_atom_site_aniso_U_12
_atom_site_aniso_U_13
_atom_site_aniso_U_23
   C1   0.0186(18)   0.026(2)     0.021(2)     0.0054(13)  -0.0015(14)   0.0017(16)
   C2   0.0249(19)   0.022(3)     0.028(3)     0.0057(15)   0.0021(15)   0.004(2)
   H2   0.21(5)      0.03(4)     -0.01(3)      0.05(3)      0.01(2)      0.00(2)
   C3   0.0234(19)   0.019(2)     0.030(3)     0.0031(15)   0.0040(16)  -0.0023(18)
   H3   0.040(18)    0.06(3)      0.04(3)      0.047(16)    0.045(18)    0.07(2)
  C3A   0.0221(18)   0.019(2)     0.020(2)     0.0045(13)   0.0038(13)   0.0045(16)
   C4   0.0249(18)   0.025(2)     0.020(2)     0.0081(14)   0.0042(14)   0.0077(17)
   O4   0.0506(15)   0.0299(18)   0.0176(16)   0.0011(10)   0.0115(11)   0.0041(12)
  C4A   0.0190(17)   0.022(2)     0.0202(19)   0.0031(13)   0.0018(13)   0.0000(16)
   C5   0.028(2)     0.030(3)     0.023(3)     0.0044(17)  -0.0012(16)  -0.002(2)
   H5   0.009(19)    0.03(2)      0.05(3)     -0.018(14)   -0.021(16)   -0.01(2)
   C6   0.031(2)     0.024(3)     0.032(3)     0.0019(16)  -0.0010(16)  -0.008(2)
   H6   0.15(4)     -0.03(2)      0.08(4)     -0.003(17)   -0.03(2)      0.02(2)
   C7   0.030(2)     0.024(3)     0.035(3)    -0.0017(17)  -0.0015(17)   0.001(2)
   H7   0.06(3)      0.09(4)      0.03(2)     -0.05(2)     -0.042(17)    0.01(2)
   C8   0.0240(19)   0.022(2)     0.026(2)    -0.0015(15)  -0.0007(16)  -0.0018(19)
   H8  -0.015(15)    0.04(2)      0.02(2)      0.013(12)   -0.015(12)   -0.009(17)
  C8A   0.0157(17)   0.022(2)     0.019(2)    -0.0001(13)  -0.0003(13)   0.0017(16)
   C9   0.0191(18)   0.021(2)     0.019(2)     0.0030(13)   0.0038(13)   0.0061(16)
   O9   0.0325(14)   0.0261(17)   0.0227(15)   0.0004(10)   0.0063(10)   0.0072(13)
  C9A   0.0184(17)   0.021(2)     0.017(2)     0.0044(13)   0.0002(13)   0.0020(16)
  C10   0.033(2)     0.028(3)     0.020(2)     0.002(2)     0.0045(16)   0.003(2)
  H10   0.02(2)      0.04(3)      0.19(7)     -0.01(2)     -0.04(3)      0.06(3)
  O10   0.0427(15)   0.0320(18)   0.0198(15)   0.0022(12)   0.0064(10)   0.0004(14)
   H9   0.14(4)     -0.06(2)      0.01(3)      0.002(15)    0.00(2)     -0.05(2)

# NOTE: Cartesian 9Nx9N covariance matrix in BOHR units
# The order of the variables (per atom) is as follows:
# . Elements 1-3: positions: x y x
# . Elements 4-9: 2nd order ADPs:
#      U 11 22 33 12 13 23
# . Elements 10-19: 3rd order ADPs (if refined):
#      U 111 222 333 112 113 122 223 133 233 123
# . Elements 20-34: 4th order ADPs (if refined):
#      U 1112 1113 1222 2223 1333 2333
#        1122 1133 2233 1123 1223 1233
# . Matrix is output in (fortran) column order

_asym_unit_covariance_matrix
;
  0.26234094E-04  0.36319317E-05  0.77948699E-06  0.26445318E-06 -0.12844467E-05
  0.91175980E-06  0.40107420E-06 -0.16811448E-05 -0.97208662E-06  0.16292406E-06
  0.36122283E-05  0.61426984E-06  0.14109685E-06 -0.15532480E-05 -0.11439964E-05
 -0.49737529E-06 -0.27047307E-07  0.32843794E-05 -0.13684969E-04  0.37797600E-04
  0.29337585E-04  0.36491036E-04 -0.11620685E-04 -0.33806235E-04 -0.11685846E-04
 -0.40382359E-04 -0.20606091E-04 -0.75326487E-06  0.12634477E-05 -0.29659491E-05
  0.54299558E-07  0.28529445E-05  0.36761384E-07  0.66381739E-06  0.33359353E-06
  0.12732640E-05 -0.25930030E-04 -0.71147386E-05  0.36692243E-05 -0.27677053E-04
  0.71071103E-04 -0.25180351E-04 -0.42306404E-05  0.99897003E-05  0.27796941E-04
 -0.93164960E-07  0.49244612E-06  0.16441178E-05  0.15335727E-05 -0.23747001E-06
 -0.10440996E-05  0.50645743E-06  0.18498425E-06  0.78850900E-06  0.10181716E-05
 -0.97841014E-06 -0.86318738E-06 -0.11096189E-05 -0.20603751E-06 -0.82777524E-08
 -0.49110256E-06 -0.11493150E-06 -0.25524793E-06 -0.14112176E-06  0.32471620E-07
  0.49539019E-06  0.78846411E-06 -0.11324016E-05  0.39231710E-06  0.90123666E-06
 -0.46788603E-06  0.38434600E-07  0.91978792E-06 -0.42047416E-06 -0.39595249E-06
 -0.65079139E-06 -0.13307390E-05  0.14537629E-05 -0.66410898E-06  0.67982172E-07
 -0.12543633E-05  0.93830898E-06 -0.27939940E-05  0.36268896E-06 -0.37572513E-05
 -0.52228138E-06  0.52040754E-06 -0.26882728E-05  0.63975329E-06  0.12258131E-06
  0.98837136E-05  0.12836002E-04  0.73510486E-05 -0.15867845E-05  0.95256112E-05
 -0.17376530E-04  0.40961906E-05  0.18512249E-04  0.54809874E-05 -0.70386328E-06
  0.45691456E-06 -0.19303289E-05  0.77044813E-07 -0.18438406E-05  0.39874136E-06
 -0.43710360E-06  0.41854539E-06  0.15925816E-05  0.38129694E-05  0.10991395E-04
  0.83295581E-06  0.68760015E-04 -0.19581888E-04  0.17487728E-05 -0.21918575E-04
 -0.14986779E-04 -0.90397159E-05 -0.12808657E-05 -0.71808538E-06  0.58228756E-07
 -0.20034156E-06 -0.37940454E-07 -0.19365141E-05  0.43502006E-06  0.51957326E-06
 -0.25997686E-06  0.70045223E-05 -0.35579473E-04 -0.30898731E-04 -0.53234644E-05
 -0.22702578E-04 -0.43597398E-06  0.11462969E-04 -0.10274796E-04  0.38311521E-05
 -0.10260967E-05 -0.26003909E-05 -0.15640372E-06 -0.14403931E-06 -0.50718653E-06
  0.45078247E-06 -0.75105601E-06 -0.15877202E-05  0.66702239E-06 -0.17195694E-04
 -0.19542789E-04  0.44343175E-05 -0.10822769E-05 -0.10109873E-04  0.78957184E-05
  0.74898753E-05 -0.28531055E-05  0.46068985E-06  0.15195421E-05 -0.34594695E-06
 -0.55501311E-07  0.20607098E-05  0.18184735E-06 -0.24590100E-05  0.97576693E-06
 -0.14312213E-06  0.32541025E-06 -0.21797941E-05  0.24407642E-05 -0.25478014E-06
  0.11506745E-05  0.92095827E-06 -0.96419126E-06  0.71336434E-06  0.60381845E-06
 -0.14767530E-05  0.34592312E-06  0.76755939E-06  0.13536440E-06 -0.89232491E-06
  0.97296515E-06  0.13414889E-06  0.10226553E-05  0.12387770E-05 -0.44048137E-06
  0.98195693E-06  0.64124940E-06  0.14147344E-05 -0.14846066E-05  0.65024982E-06
 -0.45645353E-06 -0.13186412E-05 -0.10176614E-05  0.48460980E-06  0.20247814E-05
 -0.22132295E-05 -0.12207252E-05  0.33498058E-05 -0.11820448E-05  0.20127095E-05
  0.17897835E-05  0.34962149E-05 -0.29331861E-06 -0.15780121E-04 -0.14679375E-05
 -0.16614853E-05 -0.71945405E-05  0.10238111E-04 -0.61374654E-04  0.53448677E-04
  0.60042907E-04  0.12541775E-04 -0.46594024E-06  0.13683046E-05 -0.32797773E-06
 -0.18270166E-06  0.98567182E-07 -0.92601608E-06 -0.36983728E-06 -0.16549194E-06
 -0.72207004E-06 -0.27535544E-05  0.16073707E-05  0.16821544E-04 -0.27054807E-04
  0.81804758E-07  0.59925077E-05 -0.10868848E-05 -0.15281222E-04  0.28986429E-05

  0.36319317E-05  0.45407240E-04  0.27587771E-06  0.76825290E-06 -0.12624951E-05
 -0.27623649E-06  0.13108379E-05  0.55014909E-07  0.25377989E-06  0.43175278E-05
  0.39767203E-06 -0.77707094E-06 -0.42220324E-05  0.56292597E-05 -0.37311493E-06
 -0.17424462E-05  0.23386686E-05 -0.21586676E-06 -0.21346918E-04  0.37589802E-04
 -0.14882342E-05 -0.11233558E-04 -0.37475267E-04 -0.25535790E-04 -0.54288969E-04
 -0.14463144E-04 -0.19202112E-04  0.75796238E-06 -0.39521230E-05 -0.31208229E-06
  0.11452087E-05 -0.28438913E-05 -0.23491162E-05  0.31373000E-05 -0.40995996E-08
  0.29143972E-05 -0.12235473E-04  0.18479113E-04  0.77269773E-06 -0.18739123E-04
  0.77696618E-04 -0.38041585E-05 -0.56501903E-05  0.21309477E-05  0.22935319E-04
 -0.24159929E-05 -0.58694376E-06 -0.11479376E-05  0.18579280E-05  0.26288241E-05
  0.12987378E-05 -0.19721235E-05  0.19834596E-05  0.46129318E-06  0.89712043E-06
 -0.33305220E-06 -0.16525498E-05  0.87960060E-06 -0.24989017E-05 -0.93797332E-06
 -0.90308823E-06 -0.55182450E-06 -0.15122053E-05 -0.93102252E-06 -0.29722290E-05
 -0.19279994E-07  0.12364379E-05 -0.26472898E-05  0.84862828E-06  0.29581334E-06
  0.56288563E-06  0.11610601E-06  0.12894935E-05  0.83630559E-06  0.17490025E-06
  0.19137860E-06 -0.26732297E-05  0.90258842E-06 -0.80955544E-07  0.37563417E-06
 -0.64238751E-06 -0.89854330E-06 -0.20619079E-05  0.28077181E-05  0.26071489E-06
 -0.17215744E-05 -0.26804362E-05 -0.17960224E-05  0.12198292E-05  0.20507303E-05
 -0.11137088E-04 -0.16363912E-04  0.14961218E-04 -0.10926416E-04  0.23543001E-04
  0.33910382E-04 -0.35089705E-05  0.18664238E-05  0.33814692E-05 -0.16944275E-05
 -0.67482226E-06 -0.42060073E-06 -0.16447915E-06 -0.29487759E-05  0.42717482E-06
 -0.16522333E-06  0.83988797E-06  0.56459586E-06  0.89467480E-05 -0.45104962E-05
 -0.44509864E-04  0.26642841E-04 -0.27225379E-04  0.21716379E-04 -0.12135414E-04
 -0.12783080E-04 -0.65208280E-05  0.10321026E-06 -0.17150664E-05  0.48889116E-06
  0.22148658E-07 -0.53660283E-06 -0.11218813E-05 -0.67548270E-06 -0.80469822E-06
 -0.34285644E-06  0.83948233E-06 -0.64195374E-05 -0.18436817E-04 -0.16795106E-04
  0.21200390E-04 -0.82498977E-05 -0.15972322E-04  0.10223497E-04 -0.25460809E-04
  0.49410658E-06 -0.19325366E-05  0.10470972E-05 -0.14300849E-05  0.20101349E-05
  0.16130657E-05 -0.96146001E-06 -0.10843676E-05 -0.67685455E-06 -0.17475759E-04
 -0.73409208E-05 -0.15600166E-04  0.12983234E-04 -0.12137662E-04 -0.16350041E-04
  0.10283681E-04 -0.16673995E-05 -0.13370202E-04 -0.25643407E-05 -0.96124452E-06
 -0.38781181E-06  0.12691218E-05 -0.33125323E-05  0.15994806E-07  0.49265183E-06
  0.79634446E-07  0.44076840E-06 -0.54240086E-06  0.63598461E-06  0.95974574E-06
 -0.76587292E-07 -0.31947107E-05 -0.72262183E-06 -0.15989242E-05 -0.23145983E-06
 -0.11412100E-05  0.34241981E-06  0.49981853E-06 -0.83472303E-06 -0.81110001E-06
 -0.14054741E-07 -0.15757794E-05  0.68960810E-06  0.35682104E-06 -0.10138286E-05
  0.92779304E-06  0.23303326E-05  0.27906934E-05 -0.40432167E-05  0.42167417E-05
  0.13369064E-05 -0.27882972E-08  0.10436647E-05  0.41374968E-05 -0.16721765E-05
  0.17160706E-05 -0.39015775E-05  0.12728485E-05  0.51087485E-05 -0.23534112E-06
  0.19552870E-05 -0.10103685E-05 -0.32039053E-05 -0.19248374E-04 -0.68777673E-04
  0.38528952E-04 -0.33062719E-05  0.99474753E-04 -0.28005729E-03  0.35533083E-04
  0.50391612E-04 -0.80079691E-04 -0.18121443E-05 -0.23177607E-05 -0.16046229E-05
 -0.29416623E-06  0.24781538E-05 -0.14410673E-05 -0.13244769E-05 -0.58637680E-06
 -0.19488659E-05 -0.55676105E-05 -0.24491397E-05 -0.17848537E-05  0.42439967E-04
 -0.78177186E-06 -0.26949973E-04 -0.32433393E-05  0.27548156E-05 -0.14052020E-04

  0.77948699E-06  0.27587771E-06  0.37846142E-04 -0.32367246E-06 -0.21138812E-05
 -0.11632785E-05  0.15324041E-07  0.42026525E-06 -0.72206251E-07 -0.61950809E-06
  0.23775908E-05  0.16844425E-06 -0.75296850E-06  0.17136785E-05 -0.46017988E-06
  0.10874194E-05 -0.31449412E-06 -0.10140526E-05  0.68371901E-04  0.20491679E-04
 -0.52348750E-05 -0.73183066E-05  0.13079464E-05 -0.46123026E-04 -0.93187879E-05
 -0.62832997E-04 -0.73260990E-06 -0.15847039E-05 -0.82848613E-06  0.12245945E-05
  0.18476617E-06 -0.32815767E-06  0.12952456E-05 -0.41946784E-06  0.22045021E-05
  0.21208160E-05  0.16065222E-05 -0.27853193E-04 -0.16717948E-04 -0.15024499E-04
  0.66717111E-05  0.40636683E-04  0.20651411E-04 -0.18406376E-04  0.56762965E-05
  0.35204983E-06  0.18901381E-05 -0.29202636E-05 -0.59052283E-06 -0.32593197E-06
  0.95737266E-06 -0.77810872E-06 -0.56030019E-07  0.13046770E-05 -0.11550625E-05
  0.81180373E-07 -0.56383641E-06 -0.56525295E-06 -0.13407012E-05  0.41061076E-06
 -0.68048221E-06 -0.25322340E-06 -0.11705172E-05  0.62435019E-06 -0.10518404E-05
  0.10433645E-05  0.11205792E-05  0.13704773E-05 -0.31550691E-05 -0.27872540E-06
  0.80520747E-06 -0.48452196E-06  0.84875757E-06  0.22473679E-05  0.88619834E-06
  0.56500561E-06 -0.62483864E-06  0.13363851E-05 -0.50403982E-06  0.12120648E-05
  0.81290952E-06  0.53649222E-06 -0.98420714E-08  0.19940344E-05  0.55324308E-06
 -0.99784085E-06  0.19616959E-05 -0.31035598E-06 -0.10968322E-05 -0.11655307E-05
 -0.54292395E-05  0.24861454E-04  0.22341695E-04 -0.36398487E-06  0.70337132E-05
  0.35244682E-04 -0.70003605E-05 -0.11660685E-04 -0.95484808E-05 -0.14382131E-05
  0.24660881E-05 -0.15324505E-05  0.22797028E-05 -0.41163303E-06 -0.11462122E-05
  0.24500768E-05  0.12966188E-06 -0.91244796E-06  0.15515349E-04  0.18349224E-04
  0.45128116E-04 -0.14707874E-04 -0.14840021E-04  0.22566963E-04  0.47932799E-05
  0.25614044E-04 -0.24321192E-04 -0.53389198E-06  0.11171398E-05  0.37984523E-05
  0.74607556E-06  0.76913683E-06 -0.69837566E-06  0.16835743E-05 -0.19827571E-05
  0.14366201E-05  0.40052778E-05 -0.39706932E-04  0.26466902E-04  0.12021845E-04
  0.83870835E-05 -0.28141797E-04  0.63878432E-05 -0.13439074E-04  0.95687893E-05
 -0.18249823E-05  0.16821471E-05 -0.87179634E-06  0.28164670E-06  0.43649558E-06
 -0.18632799E-05 -0.13840326E-06 -0.41237100E-06 -0.35659605E-05  0.88871719E-05
 -0.92698370E-05 -0.10243066E-04  0.17806388E-05  0.84446141E-05 -0.30476340E-04
 -0.10828151E-05  0.26165771E-05  0.20263141E-04  0.57319369E-06  0.13987429E-06
 -0.55565680E-06 -0.11448661E-05 -0.63515519E-06  0.26275991E-05 -0.38906909E-06
 -0.18389839E-05 -0.50893113E-06 -0.23961773E-06 -0.33722064E-06 -0.44397684E-05
 -0.77701048E-06  0.10647912E-05  0.25451388E-05 -0.12319257E-05  0.10986760E-05
 -0.16598395E-06  0.31404569E-06  0.18785681E-06  0.44077641E-06 -0.39068809E-06
 -0.33231982E-06  0.33935323E-05 -0.68295910E-06 -0.58010567E-07  0.13010471E-07
 -0.51645083E-06  0.27371470E-05  0.82646280E-06 -0.10296801E-05  0.38359228E-05
 -0.25202646E-05  0.14971870E-06 -0.15284838E-05  0.49474925E-05  0.14982600E-05
  0.20766748E-05  0.36912804E-05  0.19749706E-05 -0.10502672E-05 -0.17330972E-05
  0.17800893E-05  0.33998538E-05 -0.56029927E-06 -0.18799597E-04  0.43046876E-04
  0.26567165E-04  0.40685593E-04 -0.37200175E-04 -0.51687488E-04  0.13742549E-04
  0.47007459E-05 -0.26142842E-04 -0.69351550E-06  0.96549892E-06  0.16097567E-07
 -0.75548168E-06 -0.34252550E-06 -0.11692436E-06  0.51773716E-06 -0.49332499E-06
 -0.52450773E-06  0.99114431E-05 -0.10885024E-04 -0.34455798E-04 -0.19995397E-04
  0.39510515E-05 -0.39911494E-04 -0.59440225E-05  0.10989254E-04  0.37668234E-05

  0.26445318E-06  0.76825290E-06 -0.32367246E-06  0.42594894E-04 -0.18587129E-04
 -0.15960255E-04  0.43171509E-06  0.30388851E-05 -0.23350383E-05 -0.10529211E-05
 -0.27183941E-05  0.95746011E-06  0.32463201E-05 -0.27886124E-05  0.23547948E-06
  0.19728881E-05 -0.16717067E-05  0.71792644E-06  0.68727681E-05 -0.71431321E-05
 -0.55809258E-06 -0.10872500E-03 -0.16679142E-04  0.38679356E-04 -0.23198584E-04
 -0.76572271E-05  0.12792398E-04  0.20145609E-05 -0.14227875E-05  0.13923713E-05
 -0.31294092E-06  0.77046936E-06 -0.48425273E-06  0.74919374E-06 -0.10824330E-05
 -0.11868055E-05 -0.92946089E-06  0.19157167E-05 -0.62070455E-05 -0.34501296E-04
  0.34937238E-04 -0.24352858E-05  0.77544529E-05 -0.28833262E-04  0.24331867E-04
 -0.12096498E-05  0.55364088E-06 -0.12306150E-05  0.30069447E-05 -0.28463909E-06
  0.10179703E-05  0.55294163E-06  0.94519817E-06  0.12232422E-05  0.69994477E-06
 -0.75056895E-06  0.11796082E-05 -0.12095476E-05  0.11736053E-05  0.63197003E-06
  0.46269445E-06 -0.64204224E-06 -0.81320712E-06  0.40726149E-06 -0.90964599E-06
 -0.67322256E-06  0.49159663E-07 -0.30894389E-06  0.35786350E-06 -0.18218789E-06
 -0.63507688E-06  0.23375857E-07  0.15676547E-05  0.96119690E-06  0.12351047E-06
 -0.66127746E-06  0.34303723E-06  0.56167962E-06 -0.14171327E-06  0.49460034E-06
  0.41662188E-06 -0.10604295E-05  0.18100436E-05 -0.30283074E-05 -0.11906237E-05
 -0.44868333E-06 -0.10128943E-07  0.14629116E-06 -0.81815650E-06  0.15944422E-05
  0.10104650E-04 -0.16865013E-04 -0.80089919E-05  0.16293600E-04  0.76496915E-05
 -0.13206643E-04 -0.16818811E-04  0.94385199E-06 -0.84460799E-06 -0.93619875E-06
  0.25740621E-05 -0.70661957E-06  0.11771113E-06  0.38792828E-06  0.25427412E-05
  0.10128458E-05  0.15503057E-06 -0.12787416E-05 -0.91914860E-05 -0.38013925E-05
 -0.20320543E-05  0.13800034E-04 -0.73971568E-05  0.36547684E-05  0.40209345E-05
  0.10095569E-04  0.10431010E-04 -0.16173968E-05 -0.37772867E-06 -0.74136959E-06
 -0.31732071E-05  0.25418466E-05 -0.11120206E-05  0.72787194E-06  0.50048272E-07
  0.15110561E-05 -0.10714776E-04 -0.27991533E-04  0.26275675E-04 -0.23705419E-04
  0.26437826E-04  0.20083230E-04 -0.11628434E-04  0.67642972E-05  0.11402954E-05
  0.94902350E-06  0.11301656E-06  0.53100681E-06  0.96532527E-06  0.95385108E-07
 -0.36017764E-06 -0.33345221E-06  0.97858451E-06 -0.41481553E-06 -0.68452093E-05
  0.18355886E-05  0.25343690E-05  0.29044695E-04 -0.18734111E-04 -0.12339149E-04
  0.58699824E-05  0.12100208E-05  0.25794131E-05 -0.91836022E-06  0.34982297E-06
  0.41270885E-07 -0.72361403E-06  0.16157100E-05  0.48958895E-06 -0.14875063E-05
 -0.42476762E-06 -0.67611377E-06 -0.26327455E-06 -0.12408878E-06  0.22468684E-05
 -0.39424015E-05  0.27141904E-05  0.68361048E-06  0.44854297E-06 -0.76778861E-06
 -0.22735332E-05  0.14676246E-05  0.26771350E-06  0.37171689E-06 -0.41150601E-06
  0.12107207E-05  0.28300301E-06  0.47292222E-06  0.49025098E-06  0.83021612E-06
  0.19938759E-05  0.25644562E-05  0.16011908E-05 -0.33880561E-05  0.31762417E-05
  0.84159778E-06  0.98116448E-06 -0.51971684E-06  0.31544554E-05 -0.31042699E-06
 -0.22776723E-05  0.13128209E-05 -0.76950146E-05 -0.18656705E-06  0.63198847E-05
 -0.17617834E-05 -0.27515130E-05  0.29467143E-05  0.29176378E-04 -0.11874799E-04
 -0.64691762E-04  0.62074143E-05 -0.31673395E-04  0.13835853E-03 -0.27607842E-05
 -0.39569563E-04  0.46015701E-04 -0.12217024E-05 -0.10507068E-05 -0.18344799E-05
 -0.76650502E-06  0.11993616E-05  0.21860994E-05 -0.47504118E-07  0.35877267E-06
  0.26855088E-06 -0.80181317E-05 -0.13461766E-04  0.68048261E-05  0.27212691E-04
 -0.63009787E-05  0.32748288E-05  0.26436271E-05 -0.12391927E-04 -0.16790904E-04

 -0.12844467E-05 -0.12624951E-05 -0.21138812E-05 -0.18587129E-04  0.69446248E-04
 -0.12858242E-04  0.36643148E-05 -0.44311915E-06  0.38354271E-05  0.46125838E-05
 -0.26168407E-06  0.16123197E-05  0.79044145E-06  0.61154654E-05 -0.31514424E-05
 -0.22208319E-06  0.46456976E-05  0.24031597E-05  0.12061343E-04  0.53640333E-04
  0.12553844E-04  0.13247426E-03 -0.13990782E-04  0.46664426E-05  0.64273502E-04
 -0.12656459E-04 -0.88361567E-05 -0.24545986E-05  0.50148471E-05 -0.63774725E-06
  0.13616872E-05 -0.65450998E-06 -0.25294277E-05  0.55082667E-06 -0.10113691E-05
  0.16977339E-05 -0.46466300E-05  0.22627359E-04  0.23479015E-04  0.22678286E-04
 -0.89387004E-05  0.13246143E-04 -0.11215773E-04  0.21347967E-04 -0.10223053E-04
  0.17880644E-05  0.16569778E-06  0.24897065E-05  0.61420427E-06 -0.13770754E-04
  0.37955089E-05 -0.18312275E-05 -0.47428911E-06  0.29423667E-06  0.18453859E-05
  0.25364172E-05  0.17986287E-05  0.91834410E-07  0.22058037E-05  0.20075864E-06
 -0.18392959E-05 -0.69938210E-06  0.58106037E-06  0.64280008E-06  0.49443808E-05
  0.96453450E-06 -0.11362759E-05  0.33015738E-05  0.14234436E-05 -0.17972815E-05
  0.65288872E-06 -0.13366789E-05 -0.26123119E-05  0.91143416E-06 -0.17757271E-05
  0.36221632E-06  0.49927823E-05 -0.78204305E-06  0.12771734E-05 -0.13407287E-06
 -0.12101523E-05  0.96290858E-06 -0.61294183E-05 -0.52926329E-06  0.16729399E-05
 -0.43574183E-05 -0.49550876E-07  0.21438969E-06  0.66451157E-06 -0.10769363E-05
 -0.75526981E-05 -0.21338320E-04 -0.42744613E-05  0.20950735E-05 -0.31098485E-04
 -0.76117609E-05 -0.16957901E-04  0.99292580E-05  0.30488465E-04 -0.31643390E-06
 -0.78776527E-05  0.65108033E-06 -0.15923995E-05  0.40775040E-05 -0.58239656E-06
 -0.16028112E-05  0.44470080E-06  0.13370895E-05 -0.94050766E-05  0.25236911E-04
 -0.39888462E-04  0.80914762E-04  0.31918885E-04 -0.63895545E-04  0.42648776E-04
  0.18460495E-05 -0.17447668E-04  0.55481022E-05  0.25010876E-06  0.64264432E-06
  0.10202969E-05 -0.75603045E-05  0.40951359E-05 -0.19778829E-05  0.16906897E-06
 -0.31178321E-05 -0.28027246E-04  0.96934551E-04 -0.31262039E-04  0.26023603E-04
 -0.46160460E-04 -0.18306958E-05 -0.39875843E-04  0.80030193E-06 -0.32311259E-04
  0.19718425E-06 -0.34508557E-06 -0.48272977E-06 -0.78942184E-06 -0.17719934E-05
  0.24958015E-05  0.84645935E-07 -0.13197211E-05  0.37246797E-06 -0.83982477E-05
  0.80489628E-05  0.14724748E-05 -0.80670396E-06  0.11151962E-04 -0.44031097E-05
  0.11993851E-04  0.51799594E-05  0.25409242E-04 -0.90746589E-06 -0.16757810E-05
  0.74764797E-06  0.15901946E-05 -0.25949526E-05  0.87936907E-06 -0.33247022E-05
  0.72469447E-06 -0.85085456E-08  0.19859738E-06  0.78320450E-06  0.11090681E-05
  0.28066033E-05 -0.82128737E-05  0.36768304E-05  0.19097185E-05 -0.88889227E-07
  0.83160901E-06 -0.15641935E-05  0.14926958E-05  0.10258752E-05  0.10025330E-05
  0.12218292E-05  0.70599341E-06 -0.30991743E-06  0.50135118E-06  0.78112378E-06
 -0.25597849E-05  0.32132748E-05 -0.37632246E-05  0.36482347E-05  0.53117875E-06
 -0.25986503E-05  0.30404426E-05  0.43234991E-07 -0.37391377E-05 -0.13154001E-05
  0.15297756E-05 -0.50378197E-05  0.28250904E-06  0.83508907E-05  0.17920204E-06
 -0.31943493E-06 -0.20967762E-05 -0.37022687E-05 -0.73223401E-05  0.46758724E-05
  0.90079310E-04  0.25812993E-04  0.80907918E-04 -0.20032271E-03 -0.44841886E-04
  0.12310437E-04  0.49937318E-04  0.31028975E-05  0.29087494E-06  0.12156791E-05
  0.13421773E-05 -0.36676568E-05  0.69014502E-06  0.31460950E-05  0.13049129E-05
 -0.33920790E-06  0.23125048E-04  0.62665102E-04 -0.18326572E-05  0.39846333E-04
 -0.18839346E-04 -0.70814504E-05  0.35985324E-05  0.21545614E-05  0.22711569E-04

  0.91175980E-06 -0.27623649E-06 -0.11632785E-05 -0.15960255E-04 -0.12858242E-04
  0.63205060E-04 -0.40080196E-06 -0.14250986E-05  0.68158673E-06 -0.45109355E-06
  0.13758575E-05 -0.23568502E-05 -0.63651069E-06  0.65004548E-06 -0.52952062E-06
 -0.23829256E-05 -0.22731031E-05  0.18957584E-06  0.20360100E-04  0.11952784E-04
 -0.21120273E-04  0.20116618E-04  0.43717444E-04 -0.49498066E-04 -0.11071230E-04
  0.54229378E-04 -0.12288520E-04  0.52275692E-06  0.18892732E-05 -0.59347885E-05
 -0.72703524E-06  0.40347089E-06  0.44431134E-05  0.10391617E-05  0.12953155E-05
 -0.96411857E-06  0.68399383E-05 -0.36234753E-05 -0.18936722E-04  0.49556918E-05
  0.18171689E-04 -0.34683983E-04 -0.24543965E-04  0.14449468E-06  0.17220904E-04
 -0.11580217E-06 -0.53972312E-06 -0.35679941E-05  0.17890114E-05  0.39315969E-05
 -0.31507903E-05  0.30681480E-06  0.13619806E-05 -0.28088489E-05  0.12079988E-05
  0.10434372E-05  0.23110965E-06  0.18842341E-05 -0.21253893E-05 -0.11820723E-05
  0.25939192E-06  0.46529681E-06  0.15712588E-05 -0.10718486E-05  0.43249201E-06
 -0.20347912E-05  0.22698205E-05 -0.98500340E-06 -0.12340432E-05  0.50119134E-06
  0.70667556E-06  0.13335686E-05  0.13627512E-05 -0.89354956E-06  0.10518727E-05
  0.98831238E-06 -0.34192366E-05 -0.95576588E-06  0.30616053E-06 -0.59171030E-08
  0.16495693E-06 -0.12440224E-05  0.57999500E-06  0.25928460E-05 -0.17999386E-05
  0.20723519E-05  0.59167511E-05 -0.13524595E-05 -0.25352038E-05 -0.27423643E-05
  0.71525684E-07  0.93083919E-05  0.10849507E-05 -0.14044405E-04  0.15744180E-04
 -0.30385893E-04  0.22296011E-04  0.79641408E-05  0.71956038E-05 -0.91739622E-06
 -0.59928418E-06 -0.22105257E-06 -0.14296055E-06  0.27402388E-05 -0.48061853E-05
 -0.11569312E-05  0.76392392E-07  0.28412508E-05 -0.41190138E-05 -0.14796998E-04
 -0.17468076E-04  0.29998037E-04 -0.94461342E-05 -0.21091149E-04 -0.42005576E-05
 -0.35078841E-04 -0.22920886E-04 -0.45068396E-06 -0.12113934E-05  0.52147968E-06
  0.18980177E-06  0.62613686E-06  0.21475915E-05 -0.33586404E-06 -0.22507771E-05
  0.88816667E-06 -0.19442262E-05  0.91568071E-05  0.10042567E-04  0.35977408E-04
 -0.18962343E-04 -0.35101866E-04 -0.45962820E-05 -0.46817057E-05  0.20424270E-04
 -0.23901989E-06 -0.23550190E-05  0.54645183E-07 -0.27612719E-06  0.88347961E-08
  0.77272551E-06 -0.90218679E-06 -0.11581398E-05 -0.21709447E-05 -0.35545398E-05
  0.18031106E-05  0.40541498E-04 -0.18362670E-04  0.28628324E-04  0.60588897E-04
  0.81579784E-05  0.22917267E-05 -0.85816645E-05 -0.92290708E-06 -0.75569750E-06
  0.26489790E-05  0.14630891E-05  0.13261121E-05 -0.77863813E-06  0.15243035E-05
  0.32138990E-06 -0.91278395E-06  0.48320376E-07 -0.52769695E-06 -0.54224076E-05
  0.17904963E-05  0.30580911E-05 -0.24244568E-05 -0.96810161E-06  0.18189136E-05
  0.55899204E-05  0.12659500E-06  0.13274230E-05 -0.27230249E-05  0.12310801E-05
  0.34339983E-06 -0.26988214E-05 -0.34527741E-06 -0.12944209E-05 -0.35638127E-06
 -0.97354579E-07 -0.32092020E-05  0.11809688E-05  0.14515079E-05 -0.29589284E-05
  0.19709205E-05 -0.13422230E-05  0.10119555E-06 -0.14061479E-05  0.26343179E-05
  0.69839580E-05 -0.47398792E-05  0.46220777E-05  0.46646050E-05 -0.18699544E-04
  0.40991287E-05  0.43261557E-05 -0.39704876E-06 -0.25617196E-04  0.41785817E-04
  0.74929793E-04  0.28173058E-04 -0.21050497E-05 -0.47042562E-04  0.51470691E-04
  0.23115460E-04 -0.11750501E-03  0.14762154E-05  0.87398626E-06  0.13280562E-05
  0.10401548E-05  0.15659696E-05 -0.26823328E-05 -0.67750703E-06  0.57364241E-06
  0.16538049E-05  0.26661048E-04 -0.11152078E-04  0.48975399E-04  0.18095291E-04
  0.15327968E-04 -0.43906419E-04 -0.24765699E-05 -0.71866141E-06  0.46871807E-05

  0.40107420E-06  0.13108379E-05  0.15324041E-07  0.43171509E-06  0.36643148E-05
 -0.40080196E-06  0.23354303E-04 -0.74394678E-08 -0.18425841E-06  0.10759330E-05
  0.28698756E-05 -0.53960590E-06  0.68017717E-06  0.23470552E-05 -0.42495584E-05
  0.25997173E-06  0.10417035E-05  0.54239506E-05  0.37317085E-04  0.64233346E-04
  0.54414891E-05  0.44593170E-04 -0.73020437E-04  0.30729147E-04 -0.14938544E-04
 -0.15068996E-05 -0.89842973E-05  0.99106549E-06 -0.81722450E-06 -0.22502561E-06
 -0.73040701E-06  0.77851227E-06  0.12191503E-06 -0.71639585E-06 -0.27537624E-06
  0.97142923E-06 -0.35598597E-05 -0.86439522E-05 -0.23704969E-05 -0.10037145E-04
  0.71803510E-04  0.59667969E-05  0.25306255E-04  0.12245516E-04  0.28431144E-04
 -0.78665650E-06  0.19678127E-05 -0.74254532E-06  0.21519446E-06 -0.32071211E-05
 -0.28082346E-07 -0.18436743E-05  0.32431123E-06 -0.12136370E-05  0.50088502E-06
  0.54526816E-06  0.14629191E-06  0.81233014E-07 -0.89468516E-08  0.67474057E-06
  0.29399318E-06 -0.49522617E-06 -0.12529468E-06 -0.11277383E-05  0.51058376E-06
 -0.21323335E-06  0.29123781E-06  0.13429559E-05  0.12024869E-06 -0.44758767E-06
  0.59467954E-06 -0.58350540E-06  0.40254000E-07 -0.59000689E-06  0.14150866E-06
  0.15133043E-05  0.12275419E-05 -0.91862450E-06  0.49126781E-06 -0.77695336E-06
  0.55489249E-06 -0.46030845E-06 -0.18110926E-05 -0.36524243E-06  0.51182119E-07
  0.52422457E-06  0.12555441E-05 -0.38073983E-05  0.23840726E-06  0.32348821E-07
 -0.24623992E-07  0.13765633E-04 -0.52552777E-05 -0.20789747E-04 -0.87444147E-05
  0.15575421E-04 -0.17906563E-05  0.36446930E-05  0.14634851E-04  0.67308623E-07
 -0.87966668E-06 -0.70980347E-06 -0.96037812E-07  0.84063905E-06 -0.32781203E-06
 -0.42170468E-06 -0.19101032E-06  0.98317583E-07  0.14400040E-04  0.11416162E-04
  0.90083103E-06  0.31427869E-04 -0.63053560E-06 -0.41852014E-05 -0.70284493E-05
 -0.45052181E-05 -0.44570678E-05 -0.59765044E-06 -0.12166500E-05  0.35946068E-07
  0.12879498E-05 -0.13535628E-05 -0.20397735E-06 -0.30543576E-06 -0.17726920E-06
  0.83725773E-06  0.12548205E-04 -0.11677709E-04  0.10723476E-04 -0.68580473E-05
  0.87536299E-05  0.52568261E-06  0.74429298E-05 -0.43183523E-05  0.12235359E-04
 -0.66992073E-06  0.10664229E-05 -0.46071494E-06  0.67976013E-06  0.41292262E-06
 -0.88583985E-06 -0.18451267E-05 -0.53696358E-06 -0.31491484E-06  0.73616965E-05
 -0.49045102E-05  0.30002766E-05 -0.69814840E-05 -0.63477020E-06  0.36324769E-05
 -0.49538600E-06 -0.48248081E-06  0.99882022E-05 -0.10815855E-05  0.22395577E-06
 -0.15525466E-06 -0.52047149E-08  0.72013462E-06  0.13316800E-05  0.17101199E-06
  0.29699561E-06 -0.11245013E-05  0.12361892E-05  0.68955096E-06  0.52774782E-06
  0.28658342E-08 -0.52137271E-06  0.34536853E-06 -0.62412823E-06  0.46856193E-06
 -0.10972491E-05 -0.69152027E-06 -0.38819053E-07 -0.19861043E-06  0.27995100E-06
 -0.14981045E-06  0.25556350E-08 -0.64023942E-06 -0.22106728E-07 -0.16100713E-05
  0.30191011E-06  0.13245420E-05 -0.10494397E-05  0.80556327E-06  0.39755447E-06
 -0.15853473E-05  0.85818976E-06  0.20725126E-05 -0.24714378E-06 -0.54186181E-06
 -0.19763578E-05 -0.69483169E-06  0.26389416E-06  0.12448942E-05 -0.34381210E-06
  0.46313624E-06 -0.69518936E-06  0.24367209E-06  0.20102075E-05  0.25713245E-06
 -0.80926316E-05 -0.23195426E-05 -0.10397740E-04  0.62796075E-05 -0.23089097E-04
  0.23227906E-04 -0.21913230E-04 -0.10158851E-05  0.11812888E-05  0.52031213E-07
 -0.75422278E-06  0.71737769E-07  0.97049778E-06  0.10098181E-05 -0.46049922E-07
  0.90108191E-06  0.86897753E-06 -0.16065712E-05 -0.15338784E-04  0.48598853E-05
  0.18574778E-05 -0.17788397E-04 -0.26446977E-04  0.14598311E-04  0.13525639E-04

 -0.16811448E-05  0.55014909E-07  0.42026525E-06  0.30388851E-05 -0.44311915E-06
 -0.14250986E-05 -0.74394678E-08  0.25136796E-04  0.18929238E-05  0.82599705E-06
 -0.36165609E-05  0.51136890E-06 -0.78454297E-06  0.43194731E-05 -0.30504026E-05
  0.21232486E-05 -0.53784755E-06 -0.36512237E-05 -0.24213069E-04 -0.28707035E-04
  0.21056476E-04 -0.70710360E-04  0.23658825E-04  0.38401809E-04  0.11225169E-04
 -0.83185033E-05 -0.26094405E-05 -0.50049614E-06 -0.12255628E-05  0.51735774E-06
 -0.11935295E-05 -0.16390928E-05  0.10530872E-05 -0.13888669E-05 -0.96722649E-06
  0.96113256E-06 -0.59053988E-06  0.17227345E-05  0.84144649E-05 -0.26852931E-04
 -0.37810860E-05 -0.96887825E-05 -0.44851615E-06 -0.17835526E-04 -0.29256427E-04
 -0.10116724E-05  0.11488941E-05 -0.54878392E-06  0.84859663E-06 -0.16680144E-06
  0.43005587E-06  0.52591582E-06  0.12430837E-05 -0.16881170E-05  0.11108634E-05
  0.47934833E-06  0.20730867E-05 -0.60192325E-06 -0.11972095E-05  0.66782532E-06
  0.19193005E-06 -0.67559069E-06  0.10938182E-05 -0.99113062E-06 -0.51447013E-06
 -0.80089874E-06 -0.34393090E-06 -0.14280517E-05  0.46483303E-06 -0.23718700E-06
 -0.96229353E-06 -0.11840118E-05 -0.59470254E-06  0.53736355E-06  0.12258981E-05
 -0.40817123E-06  0.78857407E-06  0.29519726E-06  0.12491176E-06 -0.10443209E-05
  0.15753653E-05  0.21125407E-06  0.14882984E-07 -0.35743531E-05 -0.11307106E-06
  0.49094705E-07 -0.24200878E-05 -0.40444746E-06 -0.46431025E-06 -0.34626041E-06
  0.11163425E-04 -0.10186136E-04 -0.11394195E-04 -0.27651774E-05  0.10888988E-04
 -0.19911062E-05  0.25021369E-05 -0.92953023E-05  0.20173727E-04 -0.49758282E-06
  0.22162006E-05 -0.14119540E-05 -0.32414374E-06  0.15055850E-05  0.97173851E-06
  0.30004724E-06 -0.55386216E-06 -0.30695720E-05 -0.11828571E-04  0.12363864E-04
  0.71832403E-05 -0.34461459E-04  0.83947467E-05 -0.20862325E-04  0.12190589E-05
 -0.10966173E-05  0.13305946E-04 -0.10404111E-05  0.25646628E-05  0.63483135E-06
  0.12646893E-05 -0.60316580E-06 -0.42126130E-05  0.13843177E-05 -0.25071501E-05
 -0.10188179E-06  0.22353197E-04 -0.17860574E-04  0.38707293E-05 -0.95024841E-05
 -0.16056307E-04  0.17026470E-04  0.14649666E-04  0.28177200E-05 -0.14059435E-04
 -0.60122377E-07  0.82553185E-06 -0.11346136E-05  0.11481608E-05 -0.26844140E-06
 -0.15191652E-05 -0.36400136E-06 -0.56750591E-06  0.11616191E-06  0.11728635E-04
 -0.67663915E-05 -0.63474220E-05  0.49815296E-05 -0.94238120E-05  0.15224893E-05
  0.34542786E-05  0.12009766E-04  0.12057239E-04  0.13225479E-05  0.10273631E-06
 -0.14264528E-05 -0.12480879E-05  0.12816629E-05  0.73825973E-06 -0.11947882E-05
 -0.91902236E-07 -0.41571336E-06  0.85342467E-06 -0.17242468E-06  0.87071268E-06
 -0.69865635E-06 -0.10597397E-05  0.14599908E-05 -0.35895215E-06 -0.18474344E-05
 -0.13290169E-05 -0.63600327E-06  0.12383170E-05  0.50084486E-06 -0.54435664E-06
 -0.61556803E-07 -0.85691432E-06 -0.19811310E-06 -0.10392402E-05  0.35284109E-06
  0.12568755E-07 -0.22758854E-05  0.82852080E-06 -0.68871895E-06 -0.11575148E-05
 -0.79633635E-07  0.15935844E-05 -0.72495570E-06  0.31036308E-06 -0.30532163E-05
 -0.18776626E-05 -0.14843577E-05 -0.39905677E-05  0.27039125E-06  0.52289959E-05
  0.57487330E-06 -0.36281279E-05  0.42940346E-06 -0.48568096E-05 -0.90722859E-05
  0.14959332E-04 -0.16534400E-04  0.24505225E-04 -0.60958725E-04  0.16970242E-05
  0.25634599E-04  0.12326344E-04 -0.13959440E-05 -0.11492028E-05  0.67855292E-06
  0.84926491E-06 -0.79788151E-06  0.26327789E-06 -0.38914089E-06 -0.41192889E-06
 -0.49019558E-06  0.58556057E-05  0.29549644E-05  0.11038406E-04 -0.12524871E-04
  0.12688219E-04 -0.17008347E-04  0.15386204E-05 -0.40005927E-05 -0.65242406E-05

 -0.97208662E-06  0.25377989E-06 -0.72206251E-07 -0.23350383E-05  0.38354271E-05
  0.68158673E-06 -0.18425841E-06  0.18929238E-05  0.32716762E-04 -0.10073265E-05
 -0.23414389E-05  0.37261489E-05  0.15597383E-06  0.29167162E-05 -0.12026141E-05
  0.40314302E-05 -0.12308846E-05 -0.50903654E-05 -0.16050192E-04 -0.36891475E-05
  0.23597025E-04 -0.84958511E-05  0.19362414E-04 -0.72203080E-06  0.33371946E-04
  0.12153425E-04  0.91090042E-05  0.19505824E-06  0.38493760E-06  0.74307674E-06
 -0.43992979E-06 -0.33256839E-05  0.14453082E-05  0.79141493E-06 -0.97278062E-06
 -0.16060749E-05  0.43451732E-05  0.22111485E-04  0.26564940E-05 -0.49391847E-05
 -0.49140416E-05  0.46835371E-04 -0.10161999E-04  0.24062516E-04 -0.58595971E-05
 -0.50490560E-06 -0.84649857E-06  0.37945135E-06  0.37708909E-06  0.61604296E-06
 -0.13598638E-05 -0.23856473E-06 -0.16893167E-05 -0.11576014E-05  0.56546892E-06
  0.17229706E-05  0.55533179E-06 -0.14902737E-05  0.11676578E-05  0.22618063E-05
 -0.70785192E-06 -0.23581318E-06  0.70579069E-06  0.50887513E-07  0.54125077E-06
  0.73933148E-06 -0.64278449E-06  0.38459567E-06  0.17826349E-05 -0.45676204E-06
  0.83340285E-06 -0.15024173E-06  0.94317756E-07  0.13303438E-05  0.49252764E-06
  0.11036555E-06 -0.30975816E-06 -0.58394245E-06  0.10961647E-05  0.17125568E-05
 -0.58063441E-07 -0.15979441E-06  0.31850871E-06  0.24914374E-05  0.94152671E-06
  0.21670407E-05 -0.20101802E-05  0.51740406E-06  0.19325215E-05 -0.30100332E-05
 -0.17054154E-04 -0.56876231E-05  0.18876468E-04 -0.74235380E-05 -0.20486928E-06
  0.30773592E-04  0.35177167E-05 -0.74022475E-05 -0.13850542E-04 -0.30896169E-05
 -0.17619629E-05 -0.31620755E-06 -0.14316404E-05  0.20799282E-05  0.78928020E-06
  0.35028226E-06  0.41577744E-06 -0.11015468E-05  0.18562051E-04 -0.51980307E-05
 -0.60010034E-05 -0.30454233E-06  0.28474860E-04 -0.40505315E-04  0.13671762E-04
  0.21722613E-04 -0.86200526E-05  0.10059372E-05  0.25599766E-05  0.40983131E-07
  0.11511584E-05 -0.80965576E-06 -0.13034999E-05  0.28463381E-07 -0.17586959E-06
 -0.20118841E-05  0.56344926E-05  0.24967086E-04 -0.79576860E-05 -0.10330522E-04
 -0.34326400E-04  0.28195626E-05  0.52123918E-05 -0.52638310E-05  0.51625221E-05
 -0.15935213E-06 -0.14024795E-06 -0.44394406E-06 -0.73713824E-06  0.48370267E-06
  0.45458147E-06 -0.52285061E-06 -0.36697990E-06  0.93569665E-07 -0.17129230E-05
  0.65050656E-06 -0.59461126E-05  0.15471883E-04 -0.26456287E-04 -0.23153880E-04
  0.39823078E-05 -0.17109739E-05 -0.43541970E-05 -0.88448976E-06  0.57039655E-06
 -0.10197413E-05 -0.47447639E-06  0.10972136E-05  0.65568872E-06 -0.12445196E-05
  0.38116438E-06  0.69312360E-06  0.90967973E-06 -0.23650086E-05  0.20166252E-05
  0.18275775E-05 -0.48836638E-05 -0.22920810E-06 -0.13556373E-05 -0.11431512E-05
  0.62590832E-06 -0.63306610E-07  0.10442129E-05 -0.80040057E-06 -0.12090563E-05
  0.17503252E-06  0.14440811E-05 -0.79092961E-06 -0.12577080E-06 -0.17186441E-06
 -0.19833160E-05 -0.42331843E-05 -0.39153203E-05  0.30830585E-05 -0.23521341E-05
 -0.18702122E-05 -0.24161907E-06 -0.17430207E-05 -0.44354948E-05 -0.14648479E-05
 -0.11957263E-05 -0.28122358E-05 -0.11806835E-05  0.39890509E-05 -0.18123366E-05
 -0.10729327E-06 -0.96995558E-06 -0.41305699E-05 -0.11684704E-04 -0.27507988E-05
  0.93154224E-04  0.21943729E-04  0.44781209E-04 -0.27905207E-03 -0.81876071E-05
  0.47843188E-04 -0.40266064E-04  0.43581442E-06  0.12278206E-05 -0.55694192E-06
  0.92998051E-06 -0.12387995E-05 -0.15914804E-05 -0.15677122E-06  0.95077212E-06
 -0.11172538E-05  0.85477698E-05  0.19648411E-04 -0.21213687E-05  0.11088954E-04
  0.12275064E-04  0.23101185E-05  0.12785032E-04 -0.14961285E-04 -0.15129938E-04

  0.16292406E-06  0.43175278E-05 -0.61950809E-06 -0.10529211E-05  0.46125838E-05
 -0.45109355E-06  0.10759330E-05  0.82599705E-06 -0.10073265E-05  0.33065336E-04
  0.35818479E-05  0.47279157E-05  0.14429127E-05 -0.10395485E-05 -0.79176303E-06
  0.39391778E-05  0.40898728E-05  0.10035582E-05 -0.27779161E-04  0.69863891E-04
  0.11678738E-04  0.18738212E-03 -0.84883725E-04  0.70550759E-05  0.11429020E-03
  0.28181189E-04 -0.22359737E-04 -0.71057554E-06  0.31314520E-06  0.31070897E-05
 -0.58882762E-06  0.23387149E-05 -0.15683842E-05  0.14577537E-05 -0.31344097E-05
  0.12167155E-05 -0.27974300E-05  0.94087124E-05 -0.13322615E-04 -0.18172914E-04
  0.31515737E-04  0.24535308E-04 -0.85512826E-05 -0.11121648E-04  0.19943026E-04
 -0.22607720E-05 -0.35170129E-05 -0.74745213E-06 -0.61263297E-07  0.85648188E-06
 -0.20654549E-05  0.14783549E-07  0.70955191E-06 -0.14568272E-06  0.50687586E-06
  0.39070980E-06 -0.93131201E-08 -0.28937274E-05  0.73598616E-06  0.52347119E-06
  0.19761281E-06 -0.30352792E-06 -0.56768367E-06  0.12362627E-05  0.13754829E-05
  0.78600154E-06 -0.16412522E-05 -0.86704751E-06 -0.60965345E-07 -0.20279665E-06
 -0.60865706E-06 -0.52477903E-06  0.14723718E-05 -0.18984500E-05 -0.41669794E-06
  0.16666189E-05 -0.75510049E-06 -0.70464315E-06  0.16368019E-05  0.45759402E-06
 -0.23643436E-06 -0.37427347E-06 -0.56141420E-06  0.14928553E-05  0.11302348E-05
  0.22926281E-07 -0.24066812E-05 -0.86872424E-06  0.82396905E-06  0.21967796E-05
 -0.35301928E-05 -0.11269909E-04  0.12821801E-04  0.22408822E-04 -0.27537027E-04
  0.21422177E-04  0.38476928E-05 -0.46600580E-05  0.11349233E-04 -0.14369250E-05
 -0.45537189E-05  0.11081726E-05 -0.27407186E-05 -0.13036392E-05  0.18403116E-05
 -0.90333551E-06  0.13674486E-06  0.82878084E-06 -0.93434755E-05 -0.17739871E-04
 -0.79332968E-05  0.37916337E-04 -0.96600515E-05 -0.35577647E-04  0.50275046E-05
 -0.46309541E-05 -0.13659727E-04  0.17221615E-05  0.69913992E-06  0.13397852E-05
 -0.93367123E-07 -0.13419313E-05  0.29380298E-06  0.80813211E-06 -0.97222582E-06
  0.79958514E-06 -0.18448464E-04  0.73618840E-05 -0.85312358E-05 -0.37022263E-04
  0.26106536E-04  0.26462056E-06 -0.85633078E-05 -0.34542504E-05 -0.56661446E-05
 -0.41775650E-07  0.23674263E-06  0.26828228E-06  0.16410816E-05 -0.19331894E-05
  0.11739955E-05 -0.65271874E-06  0.30706970E-06 -0.50373430E-06 -0.10488034E-04
  0.44236952E-05 -0.15112154E-04  0.14831577E-04 -0.27574567E-04 -0.15012661E-04
 -0.12515812E-06  0.16290258E-05 -0.80969881E-05 -0.85839473E-06 -0.33308649E-05
  0.16551751E-06  0.40754901E-06  0.21864755E-06 -0.57670502E-06  0.11261561E-05
 -0.60545677E-06  0.22260749E-06  0.56679411E-06  0.51148966E-06  0.39336465E-06
 -0.14195661E-05 -0.17909483E-05  0.27559368E-05  0.15417007E-06  0.12954444E-05
  0.12532984E-05 -0.47029785E-06  0.36684752E-06 -0.17529358E-06 -0.83968354E-06
  0.15251134E-05  0.24605503E-06  0.10276224E-05  0.11159001E-06  0.12865182E-05
 -0.69545955E-06 -0.14716868E-05 -0.12124964E-05 -0.16553776E-06 -0.10423188E-05
  0.23245155E-05 -0.40744278E-06  0.28535251E-07 -0.23611583E-05 -0.21137459E-05
 -0.73455544E-06 -0.17448873E-05  0.12735219E-05  0.35862710E-05 -0.85817647E-06
  0.22395443E-06  0.22575601E-06 -0.67599499E-06  0.11174489E-04 -0.43714645E-04
 -0.51132463E-04  0.60689293E-04  0.30553732E-04 -0.76245836E-04 -0.25819451E-05
 -0.12708328E-04 -0.67440412E-05  0.13652777E-05 -0.57347497E-06 -0.40466503E-06
  0.15799945E-05 -0.90655406E-06 -0.23318250E-06 -0.11188603E-05  0.41357659E-06
 -0.38536276E-06 -0.10827259E-04  0.17180431E-04  0.12109899E-04  0.36661323E-04
 -0.76908913E-05 -0.23572334E-04  0.26855924E-05 -0.83972999E-05  0.11655267E-04

  0.36122283E-05  0.39767203E-06  0.23775908E-05 -0.27183941E-05 -0.26168407E-06
  0.13758575E-05  0.28698756E-05 -0.36165609E-05 -0.23414389E-05  0.35818479E-05
  0.68368997E-04  0.10966786E-04 -0.70657825E-05  0.73329700E-05 -0.81054155E-05
  0.28192212E-05  0.10749581E-07  0.59553550E-05  0.21847557E-03  0.28402607E-03
  0.16004740E-03  0.47919593E-03 -0.11625991E-03 -0.60374310E-04 -0.14146782E-03
 -0.13266500E-03 -0.17975708E-03 -0.23243293E-05  0.42701655E-05  0.30592299E-05
  0.16368577E-05 -0.48026730E-05  0.72536118E-05 -0.48744091E-05 -0.23368813E-06
  0.19746937E-05  0.10842048E-04  0.21207870E-04 -0.19463249E-06  0.41531273E-04
 -0.95081488E-04  0.15368112E-04 -0.34637835E-05  0.19029110E-04 -0.13211321E-04
  0.11345643E-05  0.69306321E-05 -0.11195413E-05 -0.28744105E-06  0.76843185E-05
 -0.37850955E-05  0.35083574E-05  0.92174427E-06  0.46391474E-06  0.25684309E-06
  0.36090299E-05  0.29268481E-05  0.21697686E-05  0.10224566E-05  0.15817527E-05
  0.79004831E-07  0.21258243E-05  0.14693101E-05  0.70548619E-06 -0.37368248E-05
  0.25208344E-05  0.18799199E-05  0.38010590E-05  0.34645775E-05 -0.13809061E-05
  0.51286004E-06  0.20507319E-05  0.10392332E-05  0.10833395E-05  0.14526083E-05
  0.19448190E-05 -0.22729662E-05  0.60944918E-06 -0.66313059E-06 -0.69009522E-06
  0.89113108E-06  0.50212591E-06 -0.15804554E-05 -0.12682381E-05  0.62005874E-06
 -0.14019425E-05 -0.16010650E-05 -0.58183845E-06 -0.13186122E-05  0.42093118E-05
 -0.45173740E-05  0.40334459E-04  0.77464741E-05 -0.93000297E-05  0.52081594E-04
 -0.16948150E-04 -0.48400491E-05 -0.19407691E-04  0.18040402E-04 -0.65718568E-06
 -0.29864692E-06 -0.13942044E-06 -0.24942495E-06  0.10530877E-05  0.83616206E-06
 -0.64986247E-07  0.11147953E-05  0.24525342E-05  0.28987478E-04 -0.23985536E-04
 -0.65332316E-05  0.29401166E-04  0.37371643E-04  0.28248239E-04 -0.11368630E-04
  0.49887062E-04 -0.20122646E-04 -0.23037925E-05  0.27787080E-05 -0.97919837E-06
  0.10419473E-05  0.71895905E-05  0.12399003E-05  0.16554331E-05  0.10136305E-06
  0.15111407E-05  0.14362897E-04 -0.26050540E-04  0.22751711E-04  0.78220648E-05
  0.88691616E-05  0.77780262E-05  0.30176513E-04 -0.16372954E-04  0.22252273E-04
 -0.20034896E-05 -0.17449511E-06  0.22070745E-05  0.28537174E-05  0.59647180E-06
  0.22864647E-06  0.10730624E-05  0.32122183E-06 -0.13999821E-05  0.14453926E-04
  0.73486312E-05  0.53859955E-05 -0.21722605E-04  0.75484552E-05 -0.25633415E-04
 -0.42103473E-05  0.13867578E-04  0.22479441E-04  0.24536525E-05  0.26890079E-06
  0.42033021E-06  0.98621666E-06 -0.79918765E-06 -0.29461543E-06  0.16508709E-05
  0.70779607E-06 -0.20743467E-05 -0.65985325E-06 -0.92886563E-06 -0.14570403E-06
  0.51217838E-06  0.32448384E-05  0.51860456E-06 -0.11329100E-05  0.56023326E-06
  0.12175647E-05 -0.66958256E-06 -0.11833910E-05  0.16159788E-05  0.13308658E-05
  0.25789525E-05  0.19078142E-05 -0.27276755E-06  0.12801373E-05 -0.29937876E-06
 -0.81805173E-06 -0.24927339E-05 -0.17054654E-05  0.25929405E-05 -0.19804784E-06
 -0.38964786E-06 -0.63049923E-06  0.22293685E-05  0.14158149E-05  0.79983077E-05
  0.99927645E-06  0.10734309E-05  0.26997563E-05  0.99748627E-06  0.11466990E-06
  0.42661531E-05 -0.46503011E-06  0.11570286E-05 -0.40704501E-04  0.77408855E-04
  0.79324282E-04 -0.69699296E-06  0.17228034E-04  0.27921002E-04  0.75753446E-04
  0.38296972E-05 -0.30647173E-04 -0.13069217E-05  0.81565774E-06  0.38437773E-07
  0.15529604E-05 -0.64483147E-06  0.62760657E-06  0.11350834E-05 -0.42154479E-06
  0.16468545E-05  0.26550469E-04 -0.32183000E-05 -0.74699152E-05 -0.43334900E-04
 -0.13054311E-04  0.10839695E-04 -0.30459858E-05 -0.19195299E-04 -0.16981948E-04

  0.61426984E-06 -0.77707094E-06  0.16844425E-06  0.95746011E-06  0.16123197E-05
 -0.23568502E-05 -0.53960590E-06  0.51136890E-06  0.37261489E-05  0.47279157E-05
  0.10966786E-04  0.60397642E-04 -0.35519775E-05 -0.14885369E-05  0.48439142E-05
  0.33227959E-05  0.32633288E-05  0.61896172E-05  0.80390020E-04  0.20848919E-03
  0.10236719E-04  0.23810396E-03 -0.31855151E-03  0.13586653E-03 -0.12780541E-03
  0.17014343E-04  0.57894488E-04  0.10855337E-05  0.60751153E-06  0.80241767E-05
 -0.20441059E-05 -0.20046516E-05  0.54687363E-06 -0.55612069E-06 -0.51989443E-05
  0.25416274E-05 -0.20619687E-04  0.14335174E-04  0.72706529E-06 -0.40406498E-05
  0.41328381E-05  0.54078115E-04  0.29640915E-04  0.24938542E-04  0.18465524E-05
 -0.24614353E-05 -0.95799549E-06 -0.63234097E-06  0.23574854E-05 -0.11509318E-05
 -0.27897950E-05  0.16031947E-06 -0.25027491E-05 -0.14775529E-05 -0.28275710E-06
  0.15388929E-05  0.11581543E-05  0.10682318E-05  0.47965587E-05 -0.30870250E-05
 -0.16349153E-05  0.13805862E-05  0.28930811E-05  0.93222812E-06  0.33269479E-06
  0.24922534E-05 -0.19114192E-05  0.51255182E-06  0.51463019E-05 -0.95991681E-06
 -0.71116441E-06 -0.11459008E-05 -0.65717338E-07 -0.26501264E-07  0.25956415E-05
  0.14979886E-05 -0.23864825E-05  0.22535357E-05 -0.63111558E-06  0.96056055E-06
 -0.19318383E-06  0.27516960E-05  0.18827923E-05  0.12503907E-05  0.12838056E-05
  0.94208772E-06 -0.46994462E-05  0.24382310E-05 -0.37272594E-05  0.26262088E-05
 -0.11979639E-04 -0.43659355E-05 -0.46315194E-04  0.15791250E-04 -0.15318840E-05
  0.24452834E-04  0.15181765E-04 -0.21724947E-05 -0.82764115E-05 -0.10268702E-06
 -0.95987861E-06 -0.57290847E-07  0.10118268E-05  0.36689094E-05 -0.36128017E-06
  0.25728822E-06  0.29433484E-05 -0.21452906E-05  0.25971932E-04 -0.97523617E-05
 -0.52753432E-04  0.18610914E-04  0.25644854E-04 -0.62852660E-04  0.29799839E-05
  0.19909058E-04 -0.65335204E-05  0.22022841E-05  0.38929599E-05 -0.43707051E-07
 -0.95937766E-06  0.17727248E-05  0.63001799E-06  0.24391187E-05 -0.20747431E-05
 -0.27524534E-05  0.20146461E-04  0.18025504E-04 -0.81505016E-04 -0.27431467E-04
 -0.40728296E-04  0.50742489E-04  0.18191031E-04 -0.33841704E-04 -0.41449263E-05
 -0.29674629E-06  0.40415913E-05 -0.11284078E-05  0.27100366E-05 -0.19474756E-05
  0.14030189E-05 -0.44922955E-06  0.35312974E-05 -0.21114524E-05  0.43186854E-05
  0.14620037E-04 -0.49131539E-04  0.10036338E-05 -0.16953125E-04 -0.36582396E-04
 -0.11699032E-04 -0.10505385E-04  0.13949646E-04  0.13994207E-05 -0.22053852E-05
 -0.23146402E-05 -0.15006875E-05  0.30597698E-05 -0.12236648E-06  0.43872364E-06
  0.55042200E-06  0.44993815E-06  0.17728210E-05 -0.21735818E-05  0.75467058E-06
  0.13672176E-05 -0.12688103E-05  0.43663713E-05  0.12255031E-05  0.12745869E-06
 -0.18483512E-06 -0.40190812E-06 -0.49862651E-07 -0.24400648E-05  0.10831970E-06
  0.15003003E-05  0.56004319E-06  0.12964678E-05 -0.22859607E-06  0.22098335E-05
 -0.25869588E-05  0.89299276E-06  0.67376575E-07  0.16053902E-05  0.67247872E-06
 -0.32467922E-06 -0.27512688E-05  0.18491957E-05 -0.60236022E-06 -0.28773249E-05
 -0.29548859E-05 -0.66381051E-06 -0.13280040E-06  0.48108171E-05 -0.39952358E-06
  0.21929985E-05 -0.31824416E-05 -0.23027468E-05 -0.16158899E-04 -0.34724538E-04
  0.73937016E-04  0.23039352E-04  0.60493423E-04 -0.26007447E-03 -0.16491132E-04
  0.44709393E-04 -0.91429575E-05 -0.37737130E-06  0.22622928E-05  0.46081624E-06
  0.27694705E-05 -0.29012632E-05 -0.11746897E-05  0.10251461E-06  0.17106774E-05
 -0.12010633E-05  0.19587653E-04  0.16361117E-04  0.26573714E-04 -0.48456460E-04
  0.16986488E-04  0.33248493E-04  0.15242240E-04 -0.30948219E-04 -0.13482337E-04

  0.14109685E-06 -0.42220324E-05 -0.75296850E-06  0.32463201E-05  0.79044145E-06
 -0.63651069E-06  0.68017717E-06 -0.78454297E-06  0.15597383E-06  0.14429127E-05
 -0.70657825E-05 -0.35519775E-05  0.45949380E-04 -0.20163143E-04 -0.14603935E-04
  0.89358828E-06  0.42651181E-05 -0.50664309E-05 -0.91180550E-04 -0.10422763E-03
 -0.22777181E-04 -0.16669965E-03  0.65720990E-04  0.20169678E-04  0.12453849E-03
  0.27123344E-04  0.24184530E-04 -0.13351720E-06  0.22258843E-05  0.17467391E-05
 -0.22067922E-05  0.30902338E-05  0.36958729E-05  0.16750430E-05 -0.95062150E-06
  0.19297730E-05  0.23543060E-04  0.22612487E-04  0.27940227E-04  0.27238849E-04
 -0.41865877E-04 -0.28983425E-04 -0.28663333E-04 -0.15109085E-04 -0.25710283E-04
  0.59004393E-06 -0.11727184E-05  0.77192132E-06  0.21231913E-05 -0.19423134E-05
 -0.86143988E-06 -0.56835477E-06 -0.56212140E-06 -0.18624476E-06  0.12156014E-05
 -0.25669224E-06  0.32426029E-06 -0.23061482E-05  0.23494758E-05  0.74614038E-06
  0.79105514E-06 -0.81679608E-07  0.67146006E-06 -0.21148289E-06  0.18102128E-05
  0.45118245E-06 -0.93117444E-06  0.96724181E-06  0.13004491E-05 -0.28391123E-06
 -0.71472775E-06 -0.95260662E-06 -0.90514006E-07 -0.16124150E-05 -0.16176183E-07
  0.85953022E-06  0.53396452E-06  0.45661559E-06  0.12931605E-05  0.49257448E-07
  0.47539373E-06  0.97541043E-06 -0.50948399E-06 -0.88135303E-06  0.98580047E-07
  0.18196463E-06  0.81607677E-06  0.12236812E-05 -0.71882342E-06 -0.18569203E-05
  0.10750364E-05  0.16921858E-04 -0.10873566E-04  0.28040484E-04 -0.84894674E-05
 -0.39892382E-04 -0.60913899E-05  0.10164429E-04  0.96801269E-06  0.32045693E-06
 -0.10708200E-05  0.86992645E-06  0.15589885E-05  0.18796924E-06  0.12869362E-05
  0.13984098E-05 -0.23541253E-06 -0.13121669E-05 -0.14072595E-04  0.73886967E-05
 -0.10239347E-04 -0.32581529E-04  0.96960415E-05 -0.95008914E-05  0.14939238E-04
 -0.18471774E-04 -0.92296454E-05  0.22880169E-05 -0.15584851E-05 -0.57004130E-06
 -0.35403134E-05  0.19418737E-05 -0.22524680E-05 -0.19317320E-06  0.28086117E-06
 -0.45901905E-06 -0.21210497E-04 -0.55943578E-05 -0.94193090E-05  0.53913805E-04
  0.19640527E-04 -0.12865916E-04 -0.42700356E-04  0.24461416E-05  0.14542654E-04
  0.44526461E-06 -0.35412165E-07 -0.17612026E-05  0.55699936E-07 -0.10414325E-05
  0.64100769E-06 -0.39860007E-06  0.22395273E-06  0.48033940E-06 -0.10300060E-04
 -0.68624988E-05  0.30579760E-06  0.97136066E-06  0.38396700E-05  0.67955040E-05
  0.12263229E-04 -0.23217965E-05  0.17761120E-04  0.12308494E-05 -0.17960089E-06
 -0.11664154E-05  0.76330767E-06  0.95918618E-06 -0.72865819E-06 -0.12475012E-05
 -0.13929726E-05  0.78444925E-07  0.15163437E-05  0.12153770E-05  0.86908399E-06
 -0.25696333E-05 -0.11554390E-06  0.27093788E-05  0.94779146E-06  0.83465378E-06
 -0.70359150E-06  0.63085010E-06  0.15118150E-05  0.14804249E-06 -0.17357525E-05
  0.17168598E-05  0.79096519E-06 -0.11773291E-05 -0.58988681E-06  0.33283183E-06
  0.14380712E-05  0.29671391E-06  0.14412176E-06 -0.17292006E-05 -0.45298519E-07
 -0.95460203E-07 -0.14914538E-06 -0.10633123E-05  0.19524315E-07 -0.13582067E-05
  0.12802929E-05 -0.33196221E-06 -0.62651045E-05  0.47249769E-05  0.77748718E-06
 -0.25953617E-05 -0.13417035E-06 -0.42578544E-06 -0.33238513E-04  0.40626781E-04
 -0.12863198E-04  0.22364207E-04 -0.11423118E-05 -0.25759882E-04 -0.19934458E-04
 -0.41182840E-04 -0.42033998E-05  0.16874994E-05  0.11774262E-05  0.13635603E-05
 -0.82966304E-06  0.19529698E-05  0.79190439E-06  0.17905264E-06  0.67751266E-06
  0.21895382E-06 -0.82514388E-05  0.12035883E-04  0.98374646E-05  0.37333945E-04
 -0.73839113E-05 -0.45024509E-06 -0.97334411E-05  0.13417893E-04 -0.96646696E-05

 -0.15532480E-05  0.56292597E-05  0.17136785E-05 -0.27886124E-05  0.61154654E-05
  0.65004548E-06  0.23470552E-05  0.43194731E-05  0.29167162E-05 -0.10395485E-05
  0.73329700E-05 -0.14885369E-05 -0.20163143E-04  0.82453959E-04 -0.26518686E-04
  0.37853564E-05 -0.20248332E-05  0.20719516E-05  0.12082878E-03  0.10877889E-03
  0.12885184E-03  0.18899499E-03  0.22248189E-03 -0.80641092E-04 -0.48178573E-04
 -0.11484577E-03 -0.14690607E-03 -0.20951433E-05 -0.23217106E-05  0.22558041E-05
  0.47796079E-05 -0.14686857E-04  0.59356610E-05 -0.28838374E-05  0.11198724E-05
  0.40618164E-05 -0.33665927E-05  0.70492215E-05  0.29640089E-04 -0.20609191E-04
  0.94120079E-04  0.12130459E-04 -0.17867247E-05 -0.35753410E-04  0.35442657E-04
  0.96893490E-06  0.38494654E-05 -0.76212015E-06 -0.16998836E-05  0.44400581E-05
  0.85058582E-07  0.78063921E-06  0.10635450E-05 -0.25020838E-05 -0.12038532E-05
  0.12731931E-05  0.98306372E-06  0.37358435E-05 -0.42363744E-05  0.20549463E-05
 -0.73158940E-06  0.10515880E-06  0.31749268E-05 -0.84280695E-06 -0.12311633E-06
 -0.66121000E-06  0.28878053E-05 -0.25233824E-05  0.10741388E-05  0.60368683E-06
  0.71360695E-06  0.20517825E-06  0.80889150E-06  0.13559474E-06 -0.31774589E-06
 -0.69990052E-06  0.39986567E-05 -0.21562228E-05  0.15211453E-05 -0.49657809E-06
 -0.12371522E-05  0.25075558E-05  0.21453933E-05 -0.25345603E-05 -0.45111452E-06
 -0.25476293E-05  0.15400079E-05 -0.22998073E-05  0.48773592E-07  0.20177444E-05
 -0.12938160E-05 -0.68336410E-06 -0.76397841E-05 -0.16526254E-04  0.64945284E-04
 -0.13728719E-04 -0.16102770E-04  0.23068011E-04  0.24948679E-04 -0.24976303E-05
  0.21185741E-05  0.21831766E-05 -0.67786090E-06  0.34632559E-05 -0.87982433E-06
  0.39698483E-05 -0.22506497E-06  0.23312153E-07  0.34096474E-04 -0.38049359E-05
 -0.20720800E-04  0.69822018E-04 -0.27391863E-04 -0.88932750E-05  0.94152805E-05
  0.42911146E-04  0.23290240E-04 -0.28566171E-05  0.49691577E-05  0.20077007E-05
  0.43832217E-05 -0.81351767E-05  0.37983036E-05 -0.30345085E-05 -0.86310899E-06
 -0.44799879E-05  0.16009288E-04 -0.20485007E-04 -0.25696585E-04 -0.16384279E-04
 -0.87594537E-04  0.14508946E-04  0.42814748E-04 -0.97342561E-05 -0.18676622E-04
  0.16290474E-05  0.34751190E-06  0.21414333E-05 -0.16657163E-05  0.61724629E-05
 -0.14295322E-05 -0.24098846E-06 -0.40689968E-06 -0.43891277E-05 -0.32155583E-05
  0.11839640E-05  0.11607829E-04 -0.90200355E-05  0.35634553E-05 -0.32031523E-05
  0.61852483E-05  0.10509230E-04 -0.12435215E-04 -0.17678695E-06 -0.66049852E-06
 -0.64821012E-06  0.21685791E-05 -0.26264495E-05  0.20655183E-05 -0.38781192E-05
 -0.11481040E-06 -0.37316003E-06 -0.15101624E-05 -0.80176735E-06 -0.31922148E-05
  0.32958003E-06  0.16370601E-07  0.32367628E-05 -0.37901581E-05 -0.16186546E-05
  0.33828268E-05  0.36791466E-06 -0.28311967E-05  0.17965464E-06  0.31469727E-06
  0.20808709E-05  0.48979111E-06 -0.23515188E-06  0.13043463E-06  0.15092123E-05
 -0.13654614E-05 -0.40536522E-05 -0.10170057E-05  0.97422841E-06  0.44300514E-06
  0.62440471E-06  0.17539705E-05  0.12018172E-05 -0.12935007E-05 -0.34318775E-05
  0.31085135E-06 -0.52605416E-05  0.60004747E-05 -0.45581254E-05  0.12940067E-05
  0.23929102E-05 -0.16294865E-05 -0.22509112E-05  0.13327939E-05 -0.97868841E-04
  0.23909511E-04 -0.10202483E-04  0.74134329E-04 -0.98548354E-04 -0.46056721E-04
  0.14261445E-04 -0.15119363E-04 -0.46438119E-06 -0.40875734E-05 -0.29683253E-05
  0.13277069E-05 -0.61410218E-05  0.14454527E-05 -0.12899978E-06 -0.20402962E-06
  0.16666367E-05  0.27325242E-04 -0.29703962E-04  0.43671925E-05 -0.70005843E-07
 -0.14967959E-04  0.30455829E-04 -0.25257503E-04 -0.28227080E-04 -0.19827851E-04

 -0.11439964E-05 -0.37311493E-06 -0.46017988E-06  0.23547948E-06 -0.31514424E-05
 -0.52952062E-06 -0.42495584E-05 -0.30504026E-05 -0.12026141E-05 -0.79176303E-06
 -0.81054155E-05  0.48439142E-05 -0.14603935E-04 -0.26518686E-04  0.79936572E-04
 -0.41461085E-05 -0.69668942E-06  0.43944831E-05 -0.12901047E-04 -0.30061399E-04
 -0.13850084E-03 -0.90265667E-04 -0.60030880E-04  0.51825658E-04  0.36583643E-06
  0.10861341E-03  0.25284760E-03  0.27240283E-05 -0.11438076E-05  0.95774689E-07
  0.21040237E-05  0.85157228E-05 -0.18584017E-04  0.36106157E-05 -0.24957892E-05
 -0.84943510E-05 -0.13750464E-04 -0.16952795E-04 -0.54256820E-04  0.72701550E-05
  0.23587606E-04 -0.18853745E-04  0.34410788E-04  0.47437799E-04  0.36596764E-05
 -0.11149454E-05 -0.36358303E-05 -0.31158751E-05 -0.93986497E-06 -0.14491981E-05
  0.18931947E-05 -0.11330558E-05 -0.11965308E-05  0.92326241E-06 -0.16522006E-05
  0.94170286E-06 -0.41543940E-05  0.16686803E-05 -0.60511294E-07 -0.59217625E-05
 -0.63979109E-06  0.14003313E-05 -0.31386219E-05 -0.18163444E-06 -0.16940734E-05
 -0.66230334E-06  0.31899060E-06  0.11377732E-05 -0.31190748E-05 -0.27653387E-06
 -0.49790931E-06 -0.16187062E-07  0.13234392E-05  0.30274839E-05 -0.15080183E-06
  0.14039108E-05 -0.43099090E-05  0.58817887E-05 -0.87078614E-06  0.50988170E-06
  0.10172164E-05 -0.30512590E-05  0.56759874E-08 -0.15752960E-05  0.42905702E-06
  0.69135847E-06  0.28859012E-06  0.10258616E-05 -0.19116927E-06 -0.71718292E-06
  0.13060064E-05 -0.16833148E-05  0.18122858E-04 -0.23953343E-04 -0.20473743E-04
  0.79449143E-04  0.90370060E-05 -0.17407915E-04 -0.24150509E-05  0.23113087E-05
 -0.58042912E-06 -0.86082130E-05  0.86858748E-06 -0.27377927E-05  0.28264754E-05
 -0.23457840E-05  0.11529279E-05  0.21369250E-05 -0.17828434E-05 -0.38758855E-04
  0.50257782E-04  0.10228919E-04 -0.17159015E-04  0.24165970E-04 -0.37861574E-05
 -0.56202111E-04 -0.11094693E-04  0.21783092E-05 -0.16017947E-05 -0.11411055E-05
 -0.16600316E-05  0.30232534E-05  0.13382176E-05  0.18601224E-05 -0.23101669E-05
 -0.88165379E-07  0.10121158E-05  0.35244785E-05  0.50213011E-05  0.17684647E-06
  0.36032542E-04  0.13704493E-05 -0.10317934E-05 -0.36055651E-05  0.13304097E-04
 -0.27647593E-05 -0.85773861E-06  0.51713124E-05  0.31671400E-06 -0.48902615E-05
  0.58363125E-05  0.12195626E-05 -0.38429975E-06 -0.18193169E-07  0.13353066E-04
 -0.42902732E-06  0.29278199E-04  0.22454479E-04  0.16573882E-04 -0.44370297E-04
 -0.17594893E-04  0.68132225E-05 -0.24129888E-05 -0.96608554E-06  0.12922971E-05
 -0.13780723E-05 -0.14533103E-05  0.21292570E-05 -0.46719943E-05  0.18100315E-05
  0.48875312E-06  0.86103540E-06 -0.16611510E-06 -0.72868958E-06  0.30659191E-05
  0.21105994E-05  0.26741342E-05 -0.78689980E-05  0.79669710E-06  0.43898880E-06
  0.18399690E-05 -0.85765466E-06 -0.92223987E-06  0.79872956E-06  0.13710317E-05
 -0.15459302E-05 -0.25611671E-06  0.14596974E-05  0.56354050E-07  0.37587159E-07
 -0.20149591E-05  0.26115032E-05  0.17561343E-05 -0.11916612E-05  0.12370960E-05
  0.82127378E-06 -0.20697533E-05 -0.57768080E-06  0.91135048E-06  0.67775187E-05
  0.32428913E-05  0.62203175E-06 -0.11797221E-05 -0.31433696E-06 -0.10973392E-05
  0.16670224E-05  0.17247182E-05  0.16245021E-05 -0.11897729E-04  0.44799834E-04
  0.63868935E-04  0.30719344E-04 -0.50083884E-04  0.48551596E-04  0.34101210E-04
 -0.22539818E-04 -0.23441439E-04  0.51537700E-06  0.15150689E-05  0.15230835E-05
 -0.38742484E-06  0.16381628E-05 -0.85235519E-06 -0.95439448E-06  0.21582913E-06
 -0.17016864E-05 -0.19301542E-04  0.10952826E-05 -0.28104859E-04 -0.12264948E-04
  0.14382792E-04 -0.22113768E-04  0.13760807E-04  0.17490964E-05 -0.25606033E-06

 -0.49737529E-06 -0.17424462E-05  0.10874194E-05  0.19728881E-05 -0.22208319E-06
 -0.23829256E-05  0.25997173E-06  0.21232486E-05  0.40314302E-05  0.39391778E-05
  0.28192212E-05  0.33227959E-05  0.89358828E-06  0.37853564E-05 -0.41461085E-05
  0.29686758E-04  0.21365188E-05  0.20550212E-05 -0.76888100E-04  0.54268762E-04
  0.38262665E-04  0.25370929E-03 -0.69738465E-04 -0.41998326E-05  0.86503469E-04
  0.60271638E-04 -0.34112097E-04 -0.53987461E-06  0.24876009E-05  0.17420157E-05
  0.67640556E-06 -0.24345188E-05  0.34532308E-05 -0.53829622E-06  0.44300815E-06
 -0.58704188E-06  0.51729960E-05  0.13555172E-05  0.86448175E-05  0.14360828E-04
 -0.38259744E-04  0.97321923E-05  0.14511535E-04 -0.15610348E-05 -0.17972195E-04
 -0.89930449E-06  0.53828053E-06 -0.18123344E-05  0.40542680E-06  0.21651742E-05
 -0.11681564E-05  0.14393649E-05  0.41863629E-06  0.38939381E-06  0.19981241E-05
  0.69657680E-07  0.29654264E-06 -0.66984605E-06  0.13445716E-05  0.43175669E-06
 -0.14696220E-05  0.12375720E-05 -0.34159731E-06  0.78162987E-07 -0.14961084E-05
  0.26111289E-07  0.70172543E-06 -0.18883091E-05  0.73180952E-06 -0.74340777E-07
 -0.61274398E-06 -0.16219722E-05 -0.20743857E-07  0.82350478E-06 -0.24233342E-06
 -0.13899922E-05  0.26105384E-05 -0.18106350E-05 -0.67170617E-07 -0.43325069E-06
  0.99107047E-06  0.20510588E-06  0.11104301E-06  0.19368723E-06 -0.26529878E-06
  0.21334844E-05 -0.17622919E-05  0.12479083E-05 -0.61437957E-06  0.19585135E-06
 -0.65722908E-05 -0.27404889E-04  0.96143802E-06  0.90292620E-05  0.99983132E-05
 -0.18421461E-04  0.17117982E-04 -0.11730502E-04  0.87986298E-05 -0.84327440E-06
  0.10008207E-05  0.27894202E-06 -0.71776945E-06 -0.30507696E-05  0.19183871E-05
 -0.82269269E-06  0.23762763E-06 -0.10960902E-05  0.36601148E-05 -0.79259820E-06
  0.99744748E-05 -0.96877429E-05  0.18469478E-04 -0.26150854E-04  0.11478580E-05
  0.46899969E-05  0.87609100E-05  0.19875523E-05  0.41603662E-05  0.17197528E-05
  0.15630531E-05 -0.94346529E-06 -0.11431431E-05  0.22477816E-06 -0.24976778E-05
 -0.35501481E-05  0.19916157E-04 -0.20385343E-05 -0.33516478E-04 -0.28730724E-04
 -0.25887832E-04  0.27951574E-04  0.42059428E-05 -0.11264912E-04 -0.27448589E-04
  0.50928813E-06  0.20100577E-05 -0.14708008E-05  0.16612312E-05  0.88887680E-06
 -0.12379580E-05  0.13431483E-05  0.77368488E-06 -0.21046802E-06  0.12752323E-04
  0.22862538E-04 -0.91347332E-05 -0.60610341E-05 -0.39734856E-04  0.82430838E-05
 -0.91870938E-06  0.58792910E-05 -0.30844975E-05  0.66101535E-06 -0.10059612E-05
 -0.98416004E-06  0.61034122E-06  0.15356622E-05 -0.49197014E-06  0.17037498E-07
  0.82947664E-07 -0.65511871E-06  0.15665746E-05  0.70971883E-06 -0.27171371E-06
  0.81437684E-06 -0.20432253E-05  0.15190242E-05 -0.82529348E-06 -0.14814058E-05
  0.39905596E-06 -0.17585675E-06 -0.52544805E-06 -0.57942792E-06 -0.13489693E-05
  0.15696358E-07  0.83086185E-06  0.60771653E-06  0.45782335E-06  0.11406169E-05
 -0.52927796E-07 -0.27714328E-05  0.25800530E-06  0.17439442E-05 -0.25919122E-05
 -0.11568275E-06 -0.27899969E-06  0.22133024E-06 -0.17654282E-05 -0.34703512E-05
 -0.79945682E-06 -0.72085379E-06  0.10364483E-05  0.47869820E-05 -0.17457382E-06
 -0.19686657E-05 -0.59427590E-06 -0.18901511E-05  0.15622202E-04 -0.54028045E-04
  0.83438691E-05 -0.30275585E-04  0.50521330E-04 -0.41395530E-04  0.60135001E-06
 -0.40973082E-05 -0.10120213E-04 -0.64944607E-06 -0.14892014E-05 -0.58099299E-06
 -0.14780663E-06  0.25621379E-06 -0.92477863E-06 -0.11728630E-05  0.35364776E-06
  0.64405076E-06  0.15124610E-04  0.30805326E-05 -0.15517144E-05  0.11234549E-04
  0.88856965E-06 -0.95575819E-06 -0.15575003E-04 -0.10387413E-04  0.45357818E-05

 -0.27047307E-07  0.23386686E-05 -0.31449412E-06 -0.16717067E-05  0.46456976E-05
 -0.22731031E-05  0.10417035E-05 -0.53784755E-06 -0.12308846E-05  0.40898728E-05
  0.10749581E-07  0.32633288E-05  0.42651181E-05 -0.20248332E-05 -0.69668942E-06
  0.21365188E-05  0.26557547E-04  0.88328055E-06 -0.50797849E-04  0.30081361E-04
 -0.33168319E-05  0.70962643E-04 -0.55615005E-04  0.19852884E-04  0.78563725E-04
  0.38432233E-05  0.12856337E-04  0.34569522E-05  0.75060334E-07  0.28091341E-05
 -0.15997457E-05  0.10229663E-05 -0.15678604E-05  0.10008714E-05 -0.12686706E-05
  0.37894266E-05 -0.74072517E-05  0.43109911E-05  0.11684333E-05 -0.77848620E-05
 -0.15056671E-04  0.11210014E-04 -0.67836842E-05 -0.12619634E-04 -0.84427279E-05
 -0.13748820E-05 -0.25433608E-05  0.28673443E-06 -0.19749241E-06 -0.77653423E-06
  0.36021150E-06  0.35109476E-07 -0.68824188E-06 -0.37234406E-06 -0.85392194E-06
  0.26388248E-06 -0.61206175E-06 -0.66138447E-06  0.44513978E-06  0.18020663E-05
  0.37257424E-06 -0.80882432E-06 -0.36885744E-07  0.63652444E-06  0.51500329E-06
 -0.14000416E-06 -0.11283506E-05  0.33708197E-06  0.62541271E-06 -0.37230253E-06
  0.81826484E-07 -0.44158681E-06  0.90781919E-07 -0.80893428E-06  0.18468107E-05
 -0.44692841E-06  0.14763135E-05  0.41050720E-06  0.82666032E-09  0.18688393E-05
  0.23589597E-06 -0.16353144E-05  0.18778093E-05 -0.32649395E-06 -0.76391876E-06
  0.97629209E-06 -0.17172888E-05 -0.67440903E-06 -0.29117563E-06 -0.84946247E-06
  0.13138474E-04 -0.14668357E-04 -0.64207708E-05  0.65160947E-05 -0.65955942E-05
 -0.23097723E-04  0.17650172E-04  0.39509049E-05 -0.11146563E-04 -0.74707110E-06
  0.59754508E-06  0.26420061E-05  0.49024671E-06 -0.14609988E-05  0.89470900E-06
 -0.35376289E-06  0.12980428E-05 -0.79735404E-06  0.58137547E-05  0.15146819E-04
  0.12581437E-04 -0.66444896E-04  0.17575289E-04 -0.21163939E-05  0.70003700E-05
 -0.42439149E-05  0.17355102E-04  0.66391149E-06  0.95123371E-06  0.29160462E-05
  0.36556732E-06 -0.82941038E-06 -0.27616225E-05 -0.90390712E-06 -0.90495380E-06
  0.41054641E-06 -0.37504612E-05  0.33116154E-05 -0.72022470E-05 -0.89148622E-05
  0.18920606E-04 -0.55135643E-05 -0.40830815E-05  0.16962061E-04  0.20542134E-05
  0.12145499E-05  0.37444680E-06 -0.84388698E-06  0.14318056E-05 -0.12282107E-05
  0.11870990E-06 -0.56923421E-06  0.11580389E-05  0.55362406E-06  0.41927681E-05
  0.13205301E-06  0.32074177E-05  0.20170730E-05 -0.30242675E-04  0.88723633E-05
 -0.26543742E-07 -0.13483293E-04 -0.30266673E-05 -0.92260338E-06 -0.95163619E-07
 -0.29103469E-06 -0.12176510E-05 -0.73800287E-06  0.10611038E-05  0.50239105E-07
 -0.15479214E-05 -0.22123261E-05  0.10221001E-05  0.76014658E-06  0.33286406E-06
  0.90457841E-06 -0.26093995E-05  0.56686644E-06  0.62299167E-06 -0.17629046E-05
  0.57745968E-07 -0.21512693E-06  0.18312163E-06 -0.48622959E-06 -0.10134343E-05
  0.15503513E-05 -0.95024469E-07  0.58976466E-06 -0.67052067E-06  0.68029489E-06
  0.32911059E-06 -0.51288278E-06 -0.13050972E-05 -0.65580723E-06  0.41508171E-06
 -0.84012079E-06  0.17517171E-06 -0.74615237E-06 -0.11366142E-05 -0.21980717E-05
 -0.33277058E-06  0.23141462E-05 -0.10450797E-05  0.30956569E-05  0.37775050E-06
 -0.51548494E-07 -0.19508731E-05 -0.73907542E-06  0.10067153E-05  0.84057176E-05
  0.24940206E-06 -0.70383349E-05  0.23614527E-04 -0.85149995E-04 -0.16669023E-04
  0.32766498E-05 -0.85059126E-05  0.95607291E-06 -0.13531832E-05  0.14024410E-05
  0.72585572E-06 -0.55347026E-06 -0.80349975E-06  0.13874343E-06 -0.11999435E-05
  0.15191943E-06 -0.12742615E-04  0.10621399E-04  0.47585611E-05  0.21506241E-04
 -0.13477676E-05 -0.23831813E-04 -0.50661619E-05 -0.51445590E-05 -0.46637130E-05

  0.32843794E-05 -0.21586676E-06 -0.10140526E-05  0.71792644E-06  0.24031597E-05
  0.18957584E-06  0.54239506E-05 -0.36512237E-05 -0.50903654E-05  0.10035582E-05
  0.59553550E-05  0.61896172E-05 -0.50664309E-05  0.20719516E-05  0.43944831E-05
  0.20550212E-05  0.88328055E-06  0.50670663E-04  0.12582972E-03  0.17420486E-03
 -0.57459325E-04  0.21086710E-03 -0.14254418E-03  0.15923776E-03 -0.10032354E-03
  0.44176502E-04  0.38756839E-04 -0.13452106E-05 -0.18001502E-05 -0.20185005E-05
  0.25796499E-05  0.57277225E-05 -0.69628622E-05 -0.17053456E-05  0.36891954E-05
  0.33652179E-07 -0.21243131E-05 -0.28561479E-04  0.72027769E-05 -0.28973354E-05
 -0.16947920E-05 -0.97266761E-05  0.17526223E-04 -0.13686564E-04  0.29994191E-04
 -0.26455062E-05 -0.27914448E-07 -0.10320708E-05 -0.67831076E-06  0.16108037E-05
 -0.26619118E-06 -0.78166986E-06 -0.12017016E-05  0.23175142E-05 -0.87884292E-06
 -0.23249906E-05  0.20338459E-05  0.21747114E-05 -0.13261819E-05  0.15315646E-06
 -0.16523175E-05  0.98447895E-06 -0.15813765E-05 -0.91824618E-06  0.70061886E-06
  0.99586097E-06 -0.21632169E-06 -0.10589892E-06  0.34023477E-06 -0.13775245E-05
  0.42025609E-06  0.56214912E-06  0.99046244E-07  0.12712712E-06 -0.19926834E-05
  0.15766330E-05 -0.20101232E-05  0.31887603E-07  0.40627950E-06 -0.28643409E-05
 -0.56450630E-06 -0.49951779E-06 -0.27412884E-05 -0.15420189E-05 -0.13140714E-05
 -0.12272876E-06  0.19755318E-05 -0.97216634E-07  0.13871963E-06  0.24964397E-05
 -0.63298081E-05 -0.13272241E-04 -0.35127631E-05 -0.12284335E-04 -0.99543921E-08
 -0.12486977E-04 -0.27840601E-05 -0.40546429E-05  0.59710093E-04  0.13274877E-05
  0.15186792E-05  0.14869958E-05  0.20672308E-05 -0.29207047E-05 -0.32324112E-05
 -0.28649607E-05 -0.12187441E-06  0.34535195E-05  0.45673219E-05 -0.66961501E-05
  0.19745124E-04  0.82767608E-04 -0.39645048E-04 -0.20557579E-05 -0.11617630E-04
 -0.37715121E-04 -0.47563375E-05  0.16796245E-05  0.35331376E-06  0.83202659E-06
  0.20988091E-06 -0.35396652E-05  0.48189808E-06 -0.23854351E-05 -0.58715779E-06
 -0.13535543E-05 -0.17127890E-04  0.23507182E-04 -0.12997407E-04 -0.17100541E-04
 -0.16853343E-04  0.11967402E-04 -0.51058700E-05 -0.15574149E-04  0.10919258E-05
 -0.11972376E-05 -0.15963002E-05  0.36548340E-05  0.29068672E-06 -0.22211047E-05
  0.13912436E-05 -0.40508397E-06 -0.15084561E-05  0.10526512E-05  0.27358085E-05
 -0.30315750E-05  0.33348044E-04  0.54299285E-05  0.99676458E-05 -0.11999015E-04
  0.16288288E-05  0.11632211E-04  0.58002190E-05 -0.74406073E-06 -0.28962729E-05
  0.44829285E-05 -0.18165396E-06  0.11491959E-05  0.13195898E-05  0.48550834E-06
  0.14167839E-05  0.89903436E-06 -0.11915201E-05 -0.94152753E-07 -0.46009855E-06
 -0.51235400E-06  0.20467151E-05 -0.78119423E-07 -0.30330286E-06  0.17669944E-05
 -0.15462266E-05 -0.11399620E-05 -0.26127628E-06  0.36077498E-06  0.92534593E-06
  0.10642881E-05  0.26279335E-06  0.15491179E-05 -0.15329611E-07 -0.76576232E-06
  0.11810560E-06  0.47532039E-06  0.15949641E-05  0.71776941E-06  0.21703287E-05
  0.40032693E-06 -0.84556130E-06  0.13754951E-05 -0.61472886E-06  0.23693091E-06
  0.21409064E-05  0.23876864E-06  0.32644532E-05 -0.26265178E-05  0.11623156E-05
  0.37103060E-06  0.22351946E-05 -0.54101167E-06  0.12333079E-04 -0.40954520E-04
 -0.63461249E-05 -0.16513220E-05 -0.60298142E-05  0.20895309E-03 -0.22084779E-04
 -0.67498750E-04  0.66588059E-04 -0.17135005E-06  0.80149966E-06 -0.34413123E-06
 -0.40787476E-06 -0.11141445E-05  0.15061333E-05  0.20492843E-05  0.87031715E-07
 -0.60521062E-07  0.13645802E-04 -0.56517856E-05  0.16238757E-04  0.95435061E-05
 -0.55263762E-05 -0.19879233E-04  0.88372850E-05  0.68664034E-05 -0.32839548E-05

 -0.13684969E-04 -0.21346918E-04  0.68371901E-04  0.68727681E-05  0.12061343E-04
  0.20360100E-04  0.37317085E-04 -0.24213069E-04 -0.16050192E-04 -0.27779161E-04
  0.21847557E-03  0.80390020E-04 -0.91180550E-04  0.12082878E-03 -0.12901047E-04
 -0.76888100E-04 -0.50797849E-04  0.12582972E-03  0.64708311E-02  0.26581358E-02
  0.10987836E-02  0.12225732E-02 -0.55960562E-03  0.35697296E-03 -0.14254345E-02
 -0.57934507E-03 -0.17061932E-03 -0.32228224E-04 -0.46640420E-04  0.69949722E-05
  0.34018093E-04 -0.36056944E-04  0.19980147E-04 -0.97422982E-05  0.16247503E-04
  0.10632785E-04  0.52878398E-04 -0.36356315E-03 -0.42510870E-03  0.19614643E-03
 -0.70567984E-04 -0.14341086E-03  0.41498401E-03 -0.13769947E-03  0.35937860E-03
 -0.11762281E-04  0.77128780E-04 -0.30067520E-04 -0.16980218E-04  0.94341734E-05
 -0.16327900E-04 -0.88262319E-05  0.68329758E-05 -0.38545338E-05 -0.14649365E-04
  0.50354384E-04  0.23655254E-04  0.34955860E-05  0.35338814E-04  0.14197608E-04
 -0.10092962E-05  0.45953398E-05  0.13833540E-04 -0.10838642E-04  0.13545284E-04
  0.98288856E-05  0.20195963E-04  0.61527099E-04  0.53122128E-05 -0.15118398E-04
  0.14408896E-04  0.23990903E-04  0.13924424E-04 -0.96375104E-07  0.12766854E-04
  0.40479158E-04 -0.44559084E-04  0.14401251E-04 -0.88716419E-05  0.76378673E-06
  0.57688697E-06  0.92849284E-05 -0.27247565E-04 -0.30975362E-04 -0.53558119E-05
 -0.31272589E-04  0.41624222E-04 -0.42486136E-05 -0.78707684E-05  0.30179204E-04
 -0.10203442E-03  0.30996807E-03 -0.71741936E-04 -0.10016342E-03  0.48254562E-03
  0.16768097E-03 -0.51504768E-03  0.10423839E-03 -0.10965486E-03  0.39956720E-05
  0.24355853E-04  0.14884318E-04  0.12535228E-04  0.49558860E-04 -0.34961212E-04
  0.18448769E-04 -0.27396759E-05 -0.17076755E-04  0.37101203E-03  0.21227175E-04
  0.34261949E-03  0.35398303E-03 -0.40756635E-04  0.40992350E-03  0.30216129E-04
  0.32867517E-03 -0.32429041E-03 -0.12873213E-04 -0.41363255E-04  0.11256912E-04
  0.20736689E-05  0.40805564E-04  0.36718025E-04  0.85014557E-05  0.66017656E-05
  0.58022426E-05 -0.44148712E-04 -0.14609291E-03  0.58977048E-03  0.57488133E-03
 -0.25841082E-03 -0.22283818E-03 -0.37403984E-03 -0.30511111E-03  0.61078918E-04
 -0.21031386E-04  0.90838360E-05  0.25315920E-04  0.20996269E-04 -0.99852718E-05
  0.42460959E-05 -0.10547694E-04 -0.57333703E-05 -0.28043883E-04  0.12648613E-03
 -0.88110812E-04  0.25156554E-03 -0.45972905E-05  0.22527632E-03 -0.42991780E-03
 -0.76399096E-04  0.32752041E-04  0.49488714E-03 -0.37995765E-05 -0.56620835E-05
  0.19902383E-04 -0.79566158E-05  0.10985639E-04  0.33210592E-04  0.62396227E-06
  0.72757915E-05 -0.10642061E-04 -0.20877840E-04 -0.39182067E-04 -0.19135098E-04
  0.66669014E-05  0.48819681E-04  0.14382667E-04 -0.96975945E-05  0.14679824E-04
  0.69329676E-06 -0.10978518E-05 -0.72014526E-05  0.23747538E-04  0.17095680E-04
 -0.40390339E-05  0.14442402E-04  0.17728005E-05  0.28155260E-05 -0.56766717E-05
 -0.29520569E-04  0.45098338E-04 -0.31714936E-04  0.11578574E-04  0.42954039E-04
 -0.11692353E-04  0.21290192E-07 -0.24514249E-06  0.97797096E-05  0.37240982E-04
 -0.65645700E-05 -0.51020488E-04  0.26352639E-04 -0.55145745E-04  0.28127350E-04
  0.40257980E-05  0.11334708E-04  0.22157961E-04  0.23385436E-04 -0.35129453E-04
 -0.43525858E-03  0.12761546E-03 -0.41898094E-03  0.66157932E-03 -0.17571180E-03
 -0.76751828E-03  0.13798216E-03  0.19966791E-04  0.31614412E-04  0.15991159E-04
 -0.79575821E-05 -0.12886461E-04  0.44210665E-04  0.35695888E-04 -0.59173977E-05
  0.28429707E-04  0.26377387E-03 -0.18667589E-03 -0.37818362E-03 -0.71916198E-04
 -0.12549232E-03 -0.67797371E-04  0.11983862E-03  0.37819752E-04 -0.94161099E-05

  0.37797600E-04  0.37589802E-04  0.20491679E-04 -0.71431321E-05  0.53640333E-04
  0.11952784E-04  0.64233346E-04 -0.28707035E-04 -0.36891475E-05  0.69863891E-04
  0.28402607E-03  0.20848919E-03 -0.10422763E-03  0.10877889E-03 -0.30061399E-04
  0.54268762E-04  0.30081361E-04  0.17420486E-03  0.26581358E-02  0.73762101E-02
  0.67540450E-03  0.40285571E-02 -0.22868107E-02  0.26492871E-03 -0.11709085E-02
 -0.54872043E-03 -0.80777990E-03 -0.34460155E-04 -0.10601636E-04  0.31983250E-04
  0.19888592E-04 -0.17964443E-04  0.13398021E-04 -0.33862115E-04 -0.52568209E-05
  0.34823330E-04 -0.19167828E-04 -0.17555332E-03  0.90273143E-04 -0.75570440E-04
  0.17506705E-02 -0.20412633E-04  0.52958326E-03 -0.96767726E-04  0.71828493E-03
 -0.20796179E-04  0.40835600E-04 -0.31503103E-04  0.16850808E-04  0.11924266E-04
  0.26353468E-05  0.14153074E-04  0.17061609E-04  0.14279255E-04 -0.12804658E-04
  0.50197991E-04  0.12536623E-04  0.15458318E-04  0.60544451E-04 -0.17248762E-04
 -0.30896542E-04  0.13238156E-04  0.17259501E-04 -0.15757189E-04  0.25033540E-05
  0.17913068E-04  0.47827589E-04  0.97542106E-05  0.21370294E-04 -0.11124448E-04
  0.11299210E-04  0.93775167E-05  0.22741155E-04  0.35915342E-04  0.24965450E-04
  0.33991002E-04 -0.23270063E-05  0.46072372E-05  0.70320259E-05 -0.13095170E-04
  0.99437395E-06  0.13434415E-04 -0.37671581E-04 -0.47936149E-05  0.16136121E-05
 -0.30913841E-04  0.12754020E-04 -0.16075958E-04 -0.17305063E-04  0.14138778E-04
 -0.80800916E-04  0.57903424E-04 -0.50647956E-04 -0.14916972E-03  0.30186414E-03
 -0.11151544E-03 -0.18594812E-03 -0.10250616E-03  0.13143397E-03  0.32429432E-05
 -0.43802702E-05  0.19519869E-04  0.77222562E-05  0.25909606E-04 -0.24728735E-04
 -0.16343050E-04  0.86623804E-05 -0.17060110E-05  0.11320284E-03  0.22447196E-03
  0.56296931E-04  0.87646756E-03  0.13356463E-03  0.15748423E-03 -0.21671647E-04
  0.92967736E-04 -0.18923572E-03  0.69218965E-05 -0.15286924E-04 -0.19903933E-04
 -0.84674913E-07  0.42155145E-04  0.43504973E-04  0.18433190E-04 -0.51411776E-06
  0.43891785E-05 -0.58790447E-04  0.24020779E-03  0.29917119E-03  0.33946811E-03
 -0.51461975E-03 -0.10434741E-03 -0.14187418E-03 -0.16142186E-03  0.12618162E-03
 -0.36250018E-04 -0.31662876E-04  0.35645610E-04  0.27232541E-04 -0.63380482E-05
  0.23949083E-04  0.30377592E-05  0.71501022E-05 -0.32175568E-04  0.18549238E-03
 -0.92404264E-04  0.31558260E-05  0.59278518E-04 -0.38284296E-03 -0.44537412E-03
  0.13602115E-03  0.24099347E-03  0.47820920E-03  0.12518262E-04 -0.11531843E-05
  0.85626354E-05 -0.51312262E-05  0.19601615E-04  0.38793180E-05  0.28160920E-05
  0.12912018E-04 -0.15781233E-04 -0.32661020E-06 -0.52834802E-05 -0.26996693E-04
  0.19864719E-04 -0.25559805E-04  0.40319876E-04  0.13218056E-04 -0.11763718E-05
  0.28571152E-04 -0.17148369E-04 -0.34485783E-05  0.24436630E-04  0.25598967E-04
  0.18799502E-04  0.18003938E-04  0.20108749E-04  0.19174359E-04 -0.12402297E-04
 -0.53256001E-04  0.54593424E-04 -0.80220854E-05  0.19987740E-04  0.14816661E-05
 -0.60276806E-05 -0.26880474E-04  0.16735986E-04 -0.83901501E-05  0.11771121E-04
 -0.86399151E-06 -0.33675400E-04  0.11957796E-04  0.63812200E-04  0.49804941E-05
  0.27652043E-04 -0.10570371E-04 -0.51287051E-05 -0.35659404E-04  0.59485926E-05
  0.82740580E-03  0.29756311E-03  0.39747425E-03  0.57481592E-03 -0.58904871E-03
 -0.72274699E-03  0.57506556E-03 -0.12608501E-04 -0.51163307E-05 -0.67916889E-05
 -0.49273804E-05 -0.14736916E-04  0.24590171E-04  0.20179262E-04 -0.13914586E-05
  0.23388135E-04  0.25511420E-03  0.10845884E-03 -0.10289915E-03 -0.24690257E-03
  0.55822652E-04 -0.63799469E-04 -0.32306420E-04 -0.29042488E-03  0.14280241E-03

  0.29337585E-04 -0.14882342E-05 -0.52348750E-05 -0.55809258E-06  0.12553844E-04
 -0.21120273E-04  0.54414891E-05  0.21056476E-04  0.23597025E-04  0.11678738E-04
  0.16004740E-03  0.10236719E-04 -0.22777181E-04  0.12885184E-03 -0.13850084E-03
  0.38262665E-04 -0.33168319E-05 -0.57459325E-04  0.10987836E-02  0.67540450E-03
  0.41101000E-02  0.12220692E-02  0.42827012E-03 -0.37664919E-03  0.17258459E-03
 -0.65185339E-03 -0.95363919E-03 -0.85866184E-05  0.27285116E-04 -0.14316483E-04
  0.12349619E-04 -0.30721251E-04  0.49849006E-04 -0.19063170E-04 -0.13103110E-05
  0.15020446E-04 -0.15559553E-03  0.99409066E-04 -0.88523306E-04 -0.95889618E-05
  0.43055357E-04 -0.39919808E-03 -0.45239838E-04 -0.16523834E-03 -0.15365680E-03
  0.39270006E-05  0.25035671E-04  0.24762477E-04 -0.10642420E-06  0.13967897E-04
  0.57370872E-05  0.16684591E-04 -0.13657771E-04  0.14933458E-04  0.52316663E-05
  0.31979500E-04  0.15851247E-04 -0.51794496E-05  0.14059200E-04  0.16333394E-04
 -0.17496978E-05  0.79799507E-05  0.15730978E-04 -0.13972322E-05  0.16576971E-05
 -0.88601458E-05  0.62611124E-05  0.12608172E-05  0.30210654E-04  0.74876428E-05
  0.81165679E-05  0.42708424E-05 -0.31115468E-05 -0.16839219E-04 -0.34083943E-05
 -0.17473765E-05 -0.10900122E-05  0.22976403E-04 -0.26783106E-06  0.11765903E-05
 -0.25436783E-04  0.31048514E-05  0.59912461E-05 -0.29414048E-04 -0.25143648E-05
  0.11349513E-04 -0.24982507E-04  0.12283200E-04 -0.87667421E-06  0.11709497E-04
  0.78646139E-04 -0.16156505E-03 -0.18650381E-03 -0.48457924E-04  0.45017477E-03
 -0.11568012E-03 -0.16587175E-03  0.18739570E-03 -0.42605764E-03 -0.98511376E-06
  0.26282208E-04 -0.13032186E-06 -0.21686122E-05  0.44524135E-05  0.13068800E-04
  0.49496455E-06 -0.14370873E-04 -0.20569806E-04  0.15765722E-03  0.56656674E-04
  0.29648785E-03 -0.33208501E-04  0.13020360E-03  0.14990041E-03 -0.13841395E-03
  0.37641018E-03  0.19542881E-03 -0.12288040E-04  0.33894856E-06 -0.20124952E-04
  0.14571925E-05  0.22496535E-04 -0.60038193E-06  0.27166103E-05  0.13608398E-04
 -0.87238169E-05  0.20657995E-03 -0.24445072E-03  0.79747586E-04  0.19650983E-03
 -0.27527596E-03  0.12507173E-03 -0.10057733E-03 -0.20731048E-03 -0.10927213E-03
  0.15354710E-05  0.18265038E-05 -0.17105582E-05  0.13257606E-04  0.98761978E-05
  0.37198277E-05  0.51773202E-05 -0.95174254E-05 -0.81682950E-05  0.90306970E-04
  0.85104333E-04  0.11059315E-03  0.26129864E-04 -0.24146024E-03 -0.13434845E-03
  0.67415075E-04 -0.77793649E-04 -0.36421226E-04  0.14822755E-04  0.11171273E-04
 -0.26636807E-04  0.36394276E-05  0.13277601E-04  0.10831280E-04 -0.89004642E-05
  0.12404714E-04 -0.24014169E-05 -0.18555363E-05 -0.54114210E-06 -0.43343276E-05
  0.89750794E-05  0.19659435E-04 -0.76849317E-05 -0.11969667E-04 -0.88839306E-05
 -0.11265951E-04  0.30460839E-05 -0.62327792E-05  0.15318446E-04 -0.26880748E-06
  0.98446247E-06  0.96017588E-05  0.16286217E-05 -0.53677720E-05  0.23550800E-05
 -0.13533978E-04 -0.19828271E-04 -0.71503898E-05 -0.14699470E-05 -0.15285290E-04
  0.71707748E-05  0.61694181E-07 -0.25423691E-05  0.12340678E-04  0.52784591E-05
 -0.14801390E-04  0.11383382E-04  0.26690505E-05  0.90239736E-05  0.19605019E-04
  0.20346235E-04 -0.67815046E-05 -0.12269120E-04 -0.31670828E-03  0.25620302E-03
  0.55842439E-03 -0.15331872E-03  0.19475756E-03 -0.11572086E-02  0.22793502E-03
  0.16037508E-03 -0.41879410E-03  0.59664140E-05 -0.13367323E-04  0.41508348E-05
  0.11075779E-04 -0.40474003E-05 -0.37766936E-05  0.11968750E-05  0.11148344E-04
  0.12115932E-04 -0.88750039E-04  0.67921777E-04 -0.48756083E-04  0.35787795E-04
 -0.13565037E-03  0.63333740E-04  0.16387388E-04 -0.28583510E-03  0.14387757E-03

  0.36491036E-04 -0.11233558E-04 -0.73183066E-05 -0.10872500E-03  0.13247426E-03
  0.20116618E-04  0.44593170E-04 -0.70710360E-04 -0.84958511E-05  0.18738212E-03
  0.47919593E-03  0.23810396E-03 -0.16669965E-03  0.18899499E-03 -0.90265667E-04
  0.25370929E-03  0.70962643E-04  0.21086710E-03  0.12225732E-02  0.40285571E-02
  0.12220692E-02  0.33179831E-01 -0.10055641E-01 -0.56324319E-02  0.25349695E-03
 -0.55680211E-04 -0.14513212E-02 -0.76073397E-04 -0.26596714E-05  0.76959192E-04
  0.46636642E-04  0.18176073E-04  0.24065945E-04 -0.14441760E-04  0.59908021E-05
  0.14055706E-04  0.16449323E-03 -0.21695138E-03  0.47268085E-03  0.11731804E-02
 -0.33281117E-04  0.38714437E-03  0.33348493E-03  0.67262614E-03  0.46459627E-03
  0.30883581E-04  0.32750598E-04  0.43014831E-04 -0.10096341E-03  0.25776059E-04
  0.11739929E-04  0.12617928E-04 -0.27508119E-04  0.24159492E-04 -0.25707961E-04
 -0.14250154E-04  0.39290130E-05  0.16513141E-03  0.95395391E-05 -0.29323840E-04
  0.52961347E-04  0.49153095E-04 -0.19991957E-04  0.42783759E-04  0.38236638E-04
  0.14620395E-04 -0.20325758E-04  0.60256588E-04  0.54730483E-04  0.29448395E-04
 -0.15746738E-04  0.17163076E-05 -0.42655264E-04  0.13247818E-04 -0.39634452E-04
  0.46378589E-04  0.36892585E-04 -0.23272713E-04 -0.35616077E-04  0.14258505E-04
 -0.19200214E-04  0.22555891E-04 -0.20840472E-04  0.81528259E-04  0.73144258E-05
  0.90676123E-04 -0.79734687E-04 -0.36753145E-04 -0.20099065E-04  0.68576871E-04
 -0.86199044E-03  0.30254151E-03  0.94400647E-03 -0.14878896E-03  0.30631922E-03
 -0.62832408E-03  0.61568314E-04 -0.37213134E-03  0.65378873E-03 -0.36245109E-04
 -0.90750349E-04 -0.45912002E-04  0.41824081E-04 -0.10624151E-04 -0.27238189E-04
 -0.24335407E-04 -0.25149995E-05  0.88506543E-04  0.49142958E-03 -0.32929904E-03
 -0.84446485E-03  0.40661323E-02 -0.31682302E-03 -0.12122074E-02  0.28619250E-04
 -0.90774832E-03 -0.97032437E-03  0.42756698E-04 -0.24674760E-04 -0.11654276E-04
  0.24262697E-05  0.16306136E-04  0.66744642E-04  0.46667241E-05  0.46181177E-05
 -0.66758573E-04 -0.72219780E-03 -0.38813708E-03 -0.67171620E-03 -0.23046949E-03
 -0.16670312E-03  0.59383209E-03  0.45757375E-04 -0.18121750E-03 -0.62563848E-03
  0.50655305E-05  0.31295439E-05  0.42259976E-04 -0.73595248E-05  0.33500958E-04
  0.12820819E-03  0.40753860E-04 -0.53246496E-04 -0.83871368E-06 -0.18715508E-03
 -0.32223487E-03  0.74305418E-03 -0.70948018E-03  0.22663241E-03  0.21567487E-03
 -0.18791940E-03  0.11894477E-03  0.32548156E-03 -0.20168019E-04 -0.16264732E-04
  0.45964475E-04  0.58092886E-05 -0.15693113E-04  0.49408047E-04  0.15346756E-05
 -0.14980540E-04 -0.25945823E-04 -0.84353875E-04  0.24198394E-04 -0.38346888E-04
  0.28054168E-04 -0.56140380E-05  0.39470390E-04 -0.21118765E-04  0.64019206E-04
  0.41269231E-04  0.73256734E-05 -0.10360789E-04 -0.26993978E-04 -0.37302380E-05
  0.59087046E-04  0.37307714E-04  0.25138025E-04  0.10425385E-04  0.11934836E-04
  0.64207382E-04 -0.22999672E-04  0.30925467E-04  0.10473152E-03  0.90014312E-05
  0.98713180E-05  0.67767807E-04  0.46519210E-04 -0.16042026E-04  0.26636979E-04
  0.33689487E-04  0.17744721E-04 -0.34392214E-04  0.15440020E-03  0.54895664E-04
 -0.19097748E-05 -0.91352854E-05  0.55815395E-04  0.87902956E-04 -0.91107076E-04
  0.10125538E-02  0.10325649E-03  0.11156925E-02  0.29386667E-02 -0.27633431E-03
 -0.13294463E-02  0.84319470E-03  0.98453925E-04  0.38218624E-06  0.46048047E-04
  0.81570858E-05  0.52783852E-04  0.27116842E-04  0.55058311E-04  0.53483170E-04
 -0.37811996E-05  0.10371019E-02  0.28123659E-03 -0.64882697E-04 -0.19715734E-02
  0.16541891E-03  0.85852165E-03 -0.26891613E-03 -0.13612290E-03 -0.24841734E-03

 -0.11620685E-04 -0.37475267E-04  0.13079464E-05 -0.16679142E-04 -0.13990782E-04
  0.43717444E-04 -0.73020437E-04  0.23658825E-04  0.19362414E-04 -0.84883725E-04
 -0.11625991E-03 -0.31855151E-03  0.65720990E-04  0.22248189E-03 -0.60030880E-04
 -0.69738465E-04 -0.55615005E-04 -0.14254418E-03 -0.55960562E-03 -0.22868107E-02
  0.42827012E-03 -0.10055641E-01  0.16294966E-01 -0.21138347E-02  0.43664318E-02
 -0.36050532E-03 -0.40182469E-03  0.30836662E-04  0.68519011E-04 -0.58212382E-04
  0.59033855E-05 -0.38013748E-04 -0.16181464E-05 -0.18420615E-04  0.15022387E-04
  0.13902567E-04  0.20440856E-03 -0.36217453E-03  0.29259434E-03 -0.39942864E-04
 -0.19542836E-02 -0.25562883E-03 -0.77474045E-03 -0.34288356E-03 -0.83003162E-03
  0.43778729E-04  0.63446668E-04  0.37246135E-04 -0.88636961E-05  0.55688131E-04
 -0.82646800E-05  0.40771077E-04 -0.36728310E-05  0.13309243E-04 -0.26620445E-04
  0.46090214E-04 -0.13200197E-04 -0.50548489E-04 -0.65806736E-04  0.14407713E-04
 -0.37325991E-04 -0.28157375E-04  0.52451060E-05 -0.27343735E-04 -0.99265387E-05
 -0.24687265E-04  0.14318298E-04 -0.10894209E-04 -0.45625971E-04  0.30774128E-05
  0.13193573E-04  0.13460981E-04  0.21712585E-04 -0.11688914E-04 -0.22616987E-05
 -0.35492882E-04  0.43332400E-04 -0.73580984E-07  0.62916541E-04 -0.18276744E-04
  0.17543181E-05 -0.30350827E-04  0.24021691E-04 -0.15274439E-04 -0.18955467E-04
 -0.62903432E-04  0.58308197E-04  0.70501544E-05 -0.10016861E-04 -0.47781542E-04
  0.20881591E-03  0.23119521E-03 -0.26726288E-03  0.50076489E-04  0.16293858E-03
 -0.18880201E-03 -0.27791411E-04  0.34368976E-03 -0.33728903E-03  0.41634716E-04
  0.34325150E-05 -0.21657270E-04 -0.10021667E-04 -0.85218106E-05 -0.98046016E-05
  0.21627622E-04 -0.95732537E-05 -0.22741070E-04 -0.12157869E-04  0.21505507E-03
  0.36536347E-03 -0.81691290E-03 -0.41358172E-03  0.41439458E-03  0.80375720E-04
 -0.35499045E-03  0.47305291E-03 -0.13851222E-04  0.24599099E-04 -0.47047857E-04
  0.20185768E-04 -0.11059040E-03  0.21346326E-05 -0.40504658E-04  0.13365341E-04
  0.44180852E-04  0.52121044E-03  0.51357441E-03  0.22367340E-03  0.12087855E-03
 -0.99354652E-04 -0.28174286E-03 -0.61716342E-04  0.81435997E-04  0.30852326E-03
  0.29366526E-04 -0.53360942E-04 -0.95732684E-05 -0.25674960E-06 -0.78337925E-05
 -0.74828928E-04 -0.10863203E-04  0.70336862E-05 -0.31032845E-07  0.16443547E-03
 -0.41392752E-05 -0.73664793E-04  0.14481697E-03  0.38860357E-03  0.33257867E-03
  0.32387454E-03 -0.49287201E-04 -0.19079701E-03  0.71204955E-06  0.47987493E-04
 -0.20270899E-04  0.12713814E-04 -0.34135707E-05 -0.28134784E-04 -0.27809224E-05
  0.80352266E-05  0.26628602E-04 -0.41310969E-05 -0.12671388E-05 -0.43410958E-04
 -0.30440233E-04  0.89246553E-05 -0.11463837E-04 -0.18429272E-04 -0.26113083E-04
 -0.86763468E-05  0.13054195E-05 -0.12054410E-05  0.11310384E-04 -0.33815707E-05
 -0.25004305E-04 -0.31128184E-04 -0.15576532E-04 -0.59966420E-06 -0.12378193E-04
 -0.26188832E-04 -0.41807756E-04 -0.23237785E-04 -0.37361072E-04 -0.25371105E-04
 -0.60294306E-05 -0.10452852E-04 -0.24383057E-04 -0.13555690E-04  0.34013318E-04
  0.10392516E-03  0.13037466E-04  0.43466746E-04 -0.17665759E-03  0.18029142E-04
 -0.36389512E-05  0.25754033E-04 -0.84323725E-04 -0.50687824E-03  0.60662301E-03
  0.35499407E-03  0.69969290E-04 -0.10498903E-02 -0.16237881E-02  0.52196185E-03
  0.80778038E-03 -0.11765642E-03 -0.12948667E-04 -0.57176336E-04 -0.28368890E-04
 -0.10514799E-04 -0.48649467E-04  0.38870170E-05 -0.30568386E-04 -0.19417274E-04
  0.32126044E-05 -0.15949329E-03 -0.31831666E-03 -0.67893985E-03  0.40182925E-03
 -0.37812619E-03  0.14951640E-03  0.13135280E-05  0.37351088E-04  0.16690456E-03

 -0.33806235E-04 -0.25535790E-04 -0.46123026E-04  0.38679356E-04  0.46664426E-05
 -0.49498066E-04  0.30729147E-04  0.38401809E-04 -0.72203080E-06  0.70550759E-05
 -0.60374310E-04  0.13586653E-03  0.20169678E-04 -0.80641092E-04  0.51825658E-04
 -0.41998326E-05  0.19852884E-04  0.15923776E-03  0.35697296E-03  0.26492871E-03
 -0.37664919E-03 -0.56324319E-02 -0.21138347E-02  0.91120013E-02 -0.39607236E-03
  0.16670056E-02  0.91463755E-03  0.22877263E-04 -0.31896227E-04  0.99974657E-05
 -0.17088044E-04  0.31741829E-06 -0.12333442E-04 -0.31128212E-06 -0.97144162E-05
  0.24638426E-06 -0.25444770E-03  0.13789390E-03 -0.40775169E-03 -0.16744020E-03
 -0.47510638E-04 -0.90534379E-04  0.55884077E-04 -0.17774989E-04  0.85027796E-04
 -0.43790560E-04 -0.23569089E-04 -0.46947906E-04  0.34849492E-04 -0.39454920E-05
 -0.79730907E-04 -0.12527090E-04 -0.45554061E-05 -0.39215875E-04 -0.18118757E-04
 -0.11395573E-05 -0.54876046E-05 -0.38245970E-04 -0.15792429E-05  0.64483970E-04
 -0.15046375E-04  0.18500886E-05  0.13421882E-05 -0.75295357E-05  0.85458937E-05
  0.77996113E-05 -0.72791582E-05 -0.99089373E-05 -0.98925383E-06 -0.26525189E-04
  0.29471754E-05  0.20140550E-04  0.43463214E-05 -0.32319255E-04  0.13755047E-04
  0.46682858E-05 -0.26512578E-04  0.41972080E-04  0.75609027E-05 -0.75357323E-05
 -0.25096524E-06  0.57391049E-05  0.32519568E-04 -0.63415104E-04 -0.17143205E-04
  0.17895926E-04  0.44795955E-04  0.31578001E-04  0.97717853E-05  0.22999422E-04
  0.40191514E-03 -0.25907449E-03 -0.44099026E-03  0.95554092E-04  0.44614707E-04
  0.39473416E-04 -0.32722147E-04  0.77081307E-04 -0.23384241E-03  0.98248243E-05
  0.12494036E-04 -0.58114999E-05 -0.94691659E-05  0.94537222E-05  0.91309932E-06
  0.12172851E-05 -0.17513882E-04 -0.20430414E-04 -0.13562330E-03 -0.13872441E-03
  0.13854547E-03 -0.67149139E-03  0.28399726E-04 -0.80064998E-03 -0.54277621E-04
  0.53148756E-05  0.13980336E-03  0.28205902E-05  0.18267992E-06  0.79433798E-04
  0.13862600E-04  0.21101087E-05 -0.52311468E-04  0.63541158E-05  0.90092429E-06
 -0.12877144E-04  0.58311426E-04 -0.41968448E-04  0.18877628E-03  0.21377471E-03
  0.67515737E-05  0.15134990E-03 -0.21400277E-03 -0.22619646E-03  0.85178426E-04
 -0.10788738E-04  0.28536783E-04 -0.17617198E-04  0.29121316E-04 -0.31827246E-04
 -0.27611139E-04 -0.66019143E-05  0.10488590E-04  0.11346161E-04  0.13654397E-03
  0.16086795E-03 -0.13823803E-04  0.23057754E-03 -0.36172337E-04 -0.47934954E-03
 -0.74775934E-04 -0.57326010E-04 -0.20893860E-03  0.15493517E-04  0.67969765E-05
  0.95442774E-06 -0.25406650E-05  0.30662205E-04 -0.32585455E-05 -0.77817315E-06
  0.10755443E-04 -0.25545269E-05  0.26394700E-04 -0.15473854E-04  0.67332452E-04
 -0.46913835E-05  0.20007333E-04  0.21916605E-04  0.69542468E-05  0.25896777E-05
 -0.27927254E-04 -0.17806339E-04 -0.61363274E-05  0.16073174E-05  0.33714493E-05
 -0.75099574E-05  0.32275391E-04  0.10044452E-04 -0.37705646E-05  0.13879520E-04
 -0.65669435E-05  0.11397521E-04  0.19877472E-04 -0.10892393E-04 -0.70299776E-05
  0.33351542E-04 -0.16189088E-04 -0.17815935E-04 -0.16046350E-04 -0.84435474E-05
 -0.31483370E-04 -0.50620750E-04  0.91171927E-05  0.36272358E-04 -0.65696732E-04
  0.23152950E-04 -0.19967424E-04 -0.46552307E-05  0.78146310E-04 -0.39716027E-03
  0.79713489E-04 -0.86412751E-04  0.19267656E-03 -0.23754055E-03 -0.17069336E-03
 -0.16571969E-04 -0.27513408E-03 -0.15374811E-04  0.12787685E-04  0.42010494E-04
  0.75413310E-05 -0.86846113E-05  0.13390819E-04 -0.91443555E-05  0.51482261E-05
  0.19346801E-04 -0.58568056E-03 -0.71441610E-04 -0.10114897E-04  0.89838564E-03
 -0.46280459E-04 -0.46827815E-03  0.17900685E-03 -0.26713637E-04 -0.40270229E-04

 -0.11685846E-04 -0.54288969E-04 -0.93187879E-05 -0.23198584E-04  0.64273502E-04
 -0.11071230E-04 -0.14938544E-04  0.11225169E-04  0.33371946E-04  0.11429020E-03
 -0.14146782E-03 -0.12780541E-03  0.12453849E-03 -0.48178573E-04  0.36583643E-06
  0.86503469E-04  0.78563725E-04 -0.10032354E-03 -0.14254345E-02 -0.11709085E-02
  0.17258459E-03  0.25349695E-03  0.43664318E-02 -0.39607236E-03  0.87253765E-02
  0.82707116E-03  0.68670535E-03  0.17025317E-04  0.28907120E-04 -0.26180470E-04
 -0.17163130E-04  0.36819074E-04  0.90764759E-05  0.44086934E-05  0.19832674E-05
  0.51843248E-05 -0.12286745E-03 -0.50044856E-03  0.16317906E-03 -0.33558609E-04
 -0.71561016E-03  0.34121646E-03 -0.30853695E-03  0.76611563E-04 -0.17568015E-03
  0.63259341E-05 -0.68510461E-04  0.24668646E-04 -0.21039471E-04  0.32155939E-04
 -0.19830803E-04  0.45291399E-04 -0.21965736E-04  0.44026845E-05 -0.23722658E-04
  0.49883378E-04 -0.33212707E-04 -0.57768853E-04 -0.12822708E-04  0.27160485E-04
 -0.11537370E-04 -0.35481928E-04 -0.31058982E-04 -0.11392146E-04  0.40470606E-04
 -0.98040011E-05 -0.17914043E-04 -0.28014793E-04 -0.21455136E-04 -0.12962713E-04
  0.17197238E-04 -0.43061963E-05 -0.68540300E-05 -0.58140272E-04 -0.11626884E-04
  0.17661835E-05  0.30350814E-04 -0.77502976E-05  0.35411226E-04 -0.24001302E-05
  0.35231179E-05 -0.10780210E-05  0.17165763E-04  0.30449420E-04  0.35153963E-05
  0.21748791E-04 -0.42759657E-06  0.11081899E-04 -0.55288425E-05 -0.32876737E-04
 -0.18757567E-04  0.30995962E-03  0.88542543E-04  0.33007626E-03  0.19290242E-03
 -0.35821211E-03 -0.11016971E-03  0.82159257E-05 -0.46674798E-03 -0.42331574E-05
 -0.15371701E-04 -0.20172684E-04 -0.10979564E-04 -0.16116695E-04  0.16296316E-04
 -0.40974733E-05 -0.74599222E-05 -0.10907460E-04  0.35018103E-03  0.13929190E-03
  0.16117699E-03 -0.24643165E-03 -0.16164822E-03 -0.44310811E-03  0.24481965E-03
  0.38870310E-04  0.10782753E-03  0.16673003E-04 -0.21255474E-04 -0.14994067E-04
  0.66661581E-05 -0.10184905E-03 -0.10313618E-06 -0.10183245E-04  0.77137143E-05
  0.68882077E-05  0.52940356E-03  0.97231593E-04 -0.37309919E-03  0.23388075E-03
  0.55406519E-03 -0.31002582E-04 -0.64612065E-03 -0.12900159E-03  0.47071367E-04
  0.88496982E-05 -0.27684692E-04 -0.50972942E-04  0.12817650E-04 -0.31779267E-04
 -0.29023159E-04 -0.28611585E-04  0.17174060E-05  0.21370522E-04  0.54427060E-04
  0.19551773E-03 -0.21938786E-03  0.16852669E-03 -0.51598018E-04  0.28936660E-03
  0.11612987E-03 -0.15773010E-03 -0.17085891E-03  0.75308943E-05  0.16332474E-04
  0.11923442E-04  0.85397709E-05  0.18166306E-04 -0.33281040E-04  0.95482143E-05
  0.60412524E-06  0.44853878E-05 -0.40914804E-05  0.20995364E-04 -0.89712053E-05
 -0.12872243E-04 -0.84146899E-05  0.31212012E-04  0.45112265E-05 -0.43000960E-05
  0.18987492E-04  0.37940941E-07  0.19166641E-04 -0.32892098E-05 -0.11730309E-04
  0.13928264E-04 -0.92024443E-05 -0.98260955E-05  0.14855093E-05 -0.12160157E-04
  0.17052920E-04  0.19955306E-06 -0.20384806E-04 -0.17980326E-04 -0.72633124E-04
  0.18923703E-04  0.30644405E-05 -0.21279504E-04 -0.95895890E-05  0.22120562E-04
  0.48637514E-04  0.51278140E-04  0.46670185E-05  0.17323777E-04 -0.17120605E-04
  0.10156797E-05  0.21179468E-04 -0.22563695E-04 -0.62196786E-03  0.91456226E-03
  0.29653693E-03  0.94952210E-04 -0.30516464E-03 -0.44621298E-03 -0.21154440E-03
  0.38586046E-03  0.56913740E-03  0.49327547E-04  0.46864396E-05  0.17840151E-04
 -0.71143178E-05 -0.66365772E-04  0.17234037E-04 -0.26571634E-04  0.81853206E-05
 -0.48905953E-05 -0.27182134E-03  0.27084608E-03 -0.98865497E-03  0.40814360E-03
 -0.16820401E-03  0.22670308E-03 -0.42516008E-04 -0.43138268E-04  0.32629320E-03

 -0.40382359E-04 -0.14463144E-04 -0.62832997E-04 -0.76572271E-05 -0.12656459E-04
  0.54229378E-04 -0.15068996E-05 -0.83185033E-05  0.12153425E-04  0.28181189E-04
 -0.13266500E-03  0.17014343E-04  0.27123344E-04 -0.11484577E-03  0.10861341E-03
  0.60271638E-04  0.38432233E-05  0.44176502E-04 -0.57934507E-03 -0.54872043E-03
 -0.65185339E-03 -0.55680211E-04 -0.36050532E-03  0.16670056E-02  0.82707116E-03
  0.58810572E-02  0.19766018E-02  0.24769288E-04 -0.46161023E-05 -0.56729755E-05
 -0.84722608E-05  0.27589034E-04 -0.27156383E-04  0.13740712E-04 -0.75602718E-05
 -0.19298675E-04 -0.84744663E-04 -0.29900881E-03 -0.39156576E-03  0.13233737E-03
 -0.22856576E-03 -0.71632887E-04  0.23428156E-04  0.32736679E-06 -0.21774336E-03
  0.89914695E-05 -0.24176977E-04 -0.28169019E-04 -0.22234589E-04 -0.13670351E-04
  0.84950790E-05 -0.68469076E-05 -0.46461482E-04 -0.23741862E-04 -0.14003904E-04
  0.18987523E-04 -0.41643001E-04 -0.45144339E-05  0.15799213E-06  0.15954829E-05
 -0.95296039E-05  0.91151960E-05 -0.28150326E-04 -0.14262276E-05 -0.23580936E-05
 -0.16921508E-04 -0.20731725E-04 -0.13116982E-04 -0.58599115E-06  0.34369139E-05
 -0.11708694E-04 -0.11438341E-04 -0.14185186E-04 -0.14851413E-04 -0.17575921E-05
  0.10151596E-04 -0.20858246E-04 -0.39452432E-06  0.33019676E-05  0.89433928E-05
  0.19077421E-04  0.48492205E-05  0.23250091E-04 -0.10845041E-04 -0.85381935E-05
  0.16627666E-04 -0.46830017E-05  0.37575032E-04 -0.22490369E-06  0.32809718E-05
  0.91358101E-04 -0.11843144E-03 -0.89316214E-04  0.11266330E-03  0.19962624E-03
 -0.45006355E-03  0.37088712E-04 -0.42837291E-04 -0.61412560E-04 -0.18311710E-04
 -0.42024447E-04 -0.16022770E-05 -0.17036024E-04  0.62634588E-06 -0.50893902E-04
 -0.18675655E-04 -0.96936906E-05  0.16488229E-04  0.68907067E-04 -0.38434224E-03
 -0.35683080E-03 -0.18556382E-03 -0.10104025E-03 -0.48756064E-03  0.10294924E-03
 -0.84080176E-03 -0.13309291E-03  0.23883794E-04 -0.33211809E-04  0.14585087E-04
  0.11991769E-04 -0.83147478E-05  0.67992001E-05  0.48386654E-06 -0.16690459E-04
 -0.24495655E-04 -0.15742570E-03 -0.88977980E-05 -0.12845169E-03  0.16239871E-03
  0.39962388E-04  0.23339824E-03 -0.33357056E-03 -0.28448110E-04 -0.26783179E-04
  0.43667049E-05  0.75925926E-05 -0.92630135E-05 -0.74666465E-05 -0.25045803E-05
  0.94751107E-05  0.11431349E-04  0.67284158E-05  0.17145594E-04  0.90810846E-04
  0.23426799E-03  0.18801251E-03  0.34962797E-05 -0.54186341E-04  0.11718895E-03
 -0.16237298E-03 -0.68039170E-04 -0.16063302E-03 -0.77274743E-06  0.80545719E-05
  0.21668975E-04 -0.10390704E-04  0.14988140E-04 -0.60919690E-05  0.10870141E-04
  0.18628337E-04  0.87791916E-05  0.91598526E-05 -0.10949021E-04 -0.73018647E-05
  0.65710423E-05  0.63455490E-05  0.13355520E-04  0.55017445E-06 -0.96448980E-06
  0.26594339E-05 -0.13694528E-04 -0.11331939E-04 -0.14189149E-04  0.32710758E-05
 -0.13029644E-04 -0.18257365E-04  0.11703474E-04  0.82997764E-05  0.12160359E-04
  0.24301992E-04 -0.16575865E-05  0.11869660E-04 -0.14578135E-05 -0.19471268E-04
 -0.10169493E-04 -0.75035143E-05  0.18903159E-04 -0.12347496E-04  0.14729678E-04
  0.16597453E-04  0.26056764E-04 -0.23158932E-04  0.14119227E-04 -0.11479527E-04
 -0.14330778E-04 -0.12750593E-04  0.11938578E-04  0.12070597E-03 -0.74706167E-04
  0.15056565E-03 -0.91024096E-04 -0.55303821E-04  0.53549521E-03 -0.56438698E-04
 -0.10358639E-03 -0.11830698E-03  0.30355310E-04 -0.55934375E-05  0.18230038E-04
  0.87515781E-05  0.17826432E-05  0.64845749E-05 -0.15151708E-04  0.45682013E-05
 -0.19329356E-04 -0.45623367E-03 -0.27631838E-04 -0.45222851E-03  0.25995157E-03
  0.93868859E-04 -0.22337540E-03  0.63717317E-04  0.22946635E-03  0.11808380E-03

 -0.20606091E-04 -0.19202112E-04 -0.73260990E-06  0.12792398E-04 -0.88361567E-05
 -0.12288520E-04 -0.89842973E-05 -0.26094405E-05  0.91090042E-05 -0.22359737E-04
 -0.17975708E-03  0.57894488E-04  0.24184530E-04 -0.14690607E-03  0.25284760E-03
 -0.34112097E-04  0.12856337E-04  0.38756839E-04 -0.17061932E-03 -0.80777990E-03
 -0.95363919E-03 -0.14513212E-02 -0.40182469E-03  0.91463755E-03  0.68670535E-03
  0.19766018E-02  0.58576763E-02  0.14159249E-04 -0.11935480E-04  0.10625327E-05
 -0.36461494E-06  0.21322484E-04 -0.80947973E-04  0.23160708E-04 -0.49653181E-05
 -0.19722064E-04  0.20813323E-04 -0.20085306E-03 -0.30979654E-03  0.20172301E-03
  0.35286272E-03 -0.15596214E-03  0.33002720E-03  0.22159362E-03  0.36487089E-03
 -0.32298478E-05 -0.28776828E-04 -0.47290128E-06 -0.49744629E-05 -0.45280519E-04
  0.12737840E-05 -0.18685925E-04 -0.17765399E-04  0.31838331E-05 -0.77468859E-05
  0.23922092E-04 -0.18367401E-04 -0.61154282E-05 -0.11384280E-05 -0.52382029E-04
 -0.17048675E-04  0.12003350E-04 -0.19038490E-04 -0.15052857E-05 -0.34099052E-05
 -0.13003613E-04 -0.29953341E-04  0.14747465E-04  0.48281435E-05  0.46421299E-06
 -0.11372252E-04 -0.21521181E-04 -0.66032497E-05  0.19052161E-04 -0.12463368E-04
  0.55950589E-05 -0.21019425E-04  0.63606402E-05  0.53658559E-05  0.59917250E-05
  0.25361066E-04  0.18893771E-04  0.41613064E-05  0.92219304E-05  0.16271626E-04
 -0.39713596E-05 -0.31008640E-04  0.91713980E-05 -0.14991334E-05 -0.36543269E-05
 -0.45733424E-04  0.18050936E-04  0.15592270E-04  0.21743191E-03 -0.38573744E-03
 -0.12011747E-03 -0.96591669E-05  0.48677712E-05 -0.23654446E-03 -0.46987776E-05
 -0.25036001E-04  0.32617900E-04  0.21369620E-04  0.27195846E-04 -0.48669509E-04
 -0.33050001E-05  0.10763344E-04 -0.40767294E-04  0.17267518E-04  0.12885570E-03
  0.59012093E-03 -0.33180207E-03  0.28832477E-03 -0.41893970E-03  0.10090008E-03
 -0.34252811E-03  0.30349388E-03 -0.98769945E-06  0.39018105E-05  0.12918524E-05
 -0.88619694E-05  0.57629802E-05 -0.14394137E-05  0.13211068E-04 -0.10487458E-04
  0.11302424E-04 -0.97454392E-04 -0.65679284E-04  0.38762693E-04  0.44686170E-04
  0.30068489E-03 -0.16567325E-03 -0.24586722E-03  0.10117907E-03  0.13990250E-03
 -0.13140024E-04  0.41141739E-04 -0.16961688E-04 -0.14235358E-05 -0.43037066E-04
  0.17649903E-04  0.26293384E-06 -0.16723666E-04 -0.23632932E-04 -0.16808708E-04
 -0.38762370E-04  0.49734888E-04  0.15684856E-03 -0.12946515E-04 -0.19256961E-03
 -0.18264036E-03 -0.35451388E-04  0.26997260E-03  0.10295416E-04 -0.94949365E-05
  0.14007628E-04 -0.13488231E-04  0.14054513E-05  0.14471133E-04  0.70782037E-05
 -0.70555416E-05  0.17206574E-04  0.60351271E-05  0.87677704E-05 -0.66008479E-05
  0.39306615E-06 -0.79729273E-05  0.85692605E-05  0.17851412E-04  0.21932591E-04
  0.24320953E-05  0.13699240E-05 -0.52258804E-05  0.85157350E-05 -0.43777634E-05
 -0.59053566E-06 -0.12894933E-04  0.44771480E-05 -0.19820869E-05 -0.24596720E-05
 -0.10197726E-04  0.11258094E-04  0.16138287E-04 -0.17977449E-04  0.16240386E-04
  0.64710647E-05  0.20100676E-05 -0.44642200E-05  0.10157861E-04  0.31143491E-04
 -0.13416447E-04  0.18236190E-04 -0.17119273E-04 -0.96121113E-05  0.22089829E-04
 -0.33202508E-05  0.65683553E-05  0.34121333E-04 -0.76864687E-04  0.97488712E-04
 -0.42020800E-03  0.49831562E-04 -0.70528904E-03  0.13629674E-02  0.93548739E-04
 -0.25228991E-03 -0.19023284E-03  0.13923807E-04  0.61437680E-05  0.12858121E-04
 -0.17328682E-04  0.12296524E-04  0.23574664E-04 -0.23033821E-05  0.50025871E-05
 -0.16988391E-04 -0.77434350E-03 -0.18376188E-03 -0.10796157E-03  0.27942483E-03
  0.14021449E-03 -0.40428564E-03 -0.14967747E-04  0.45956646E-03 -0.17351712E-03

 -0.75326487E-06  0.75796238E-06 -0.15847039E-05  0.20145609E-05 -0.24545986E-05
  0.52275692E-06  0.99106549E-06 -0.50049614E-06  0.19505824E-06 -0.71057554E-06
 -0.23243293E-05  0.10855337E-05 -0.13351720E-06 -0.20951433E-05  0.27240283E-05
 -0.53987461E-06  0.34569522E-05 -0.13452106E-05 -0.32228224E-04 -0.34460155E-04
 -0.85866184E-05 -0.76073397E-04  0.30836662E-04  0.22877263E-04  0.17025317E-04
  0.24769288E-04  0.14159249E-04  0.30346686E-04  0.35633465E-05 -0.29607532E-06
 -0.13385777E-05 -0.59646162E-06  0.13601777E-05  0.69380810E-06 -0.51565246E-05
 -0.26239609E-05 -0.13157574E-04  0.57561729E-04 -0.27705193E-04  0.63206032E-04
  0.16035212E-04 -0.72377986E-05  0.13967799E-04  0.22558211E-04  0.92703562E-04
 -0.39841973E-06  0.42677282E-05 -0.84409990E-06 -0.31344921E-06  0.35843814E-05
  0.10121846E-06  0.94759009E-07 -0.25792134E-05 -0.64223968E-06 -0.85628823E-07
  0.12967030E-05 -0.12728838E-05 -0.52245269E-06  0.53617204E-06  0.29410442E-06
 -0.67042222E-06 -0.49066522E-06 -0.15795858E-06 -0.19349729E-05 -0.30670154E-06
 -0.88861142E-06  0.12298003E-05  0.41260186E-06 -0.43409292E-06  0.15436610E-05
  0.11623757E-05  0.17018095E-06 -0.77823145E-06 -0.19601142E-05  0.21641067E-05
  0.81909056E-06 -0.21679865E-05  0.86043661E-06  0.16197269E-05  0.93671654E-06
 -0.26968610E-06 -0.12824692E-05  0.44231949E-06 -0.10649578E-05 -0.78726972E-06
  0.15460296E-05  0.34237034E-06  0.15070245E-05 -0.76142220E-06  0.11271416E-05
  0.29763282E-05 -0.31573402E-05 -0.14568790E-04  0.28391063E-05  0.50669505E-05
 -0.50902952E-05 -0.15830880E-05  0.11940405E-04 -0.10587721E-04  0.56980053E-06
 -0.55843979E-06  0.55932942E-06  0.30476642E-06 -0.82061160E-06  0.13433820E-05
 -0.16609057E-05  0.16885564E-05  0.11088308E-05  0.25400481E-04 -0.17866187E-04
 -0.20116941E-05 -0.48270733E-05 -0.16807697E-04  0.10904485E-04 -0.75337889E-05
 -0.32307984E-04  0.39321125E-06  0.22663280E-05  0.79418982E-06  0.20025996E-05
  0.14457473E-05 -0.24419424E-05  0.40294693E-06 -0.21543110E-05  0.76109129E-06
  0.85809215E-06  0.38409439E-05  0.15486144E-04 -0.91065107E-05 -0.26172493E-04
  0.41952405E-04 -0.93078572E-05 -0.15807952E-04 -0.82813102E-05  0.18056117E-05
  0.21760079E-05  0.97382710E-06 -0.75832295E-06 -0.11590595E-05 -0.68199865E-06
  0.16278839E-05  0.53269759E-06 -0.36262511E-07 -0.12478129E-05 -0.21754837E-05
 -0.44166621E-05  0.17753564E-04  0.36051696E-05 -0.60264863E-05  0.14530753E-05
 -0.10378244E-05 -0.29620955E-05 -0.17059570E-04 -0.22359524E-05  0.73988105E-06
 -0.47386559E-06 -0.14406014E-06 -0.50002745E-06  0.19453879E-06  0.56081295E-06
 -0.40319912E-06 -0.15699004E-05  0.77126889E-06 -0.76587276E-06  0.92064904E-06
  0.13955213E-05 -0.17092977E-05  0.61155899E-07 -0.14689672E-05 -0.10301334E-05
  0.61876825E-08 -0.16088597E-06  0.10827034E-05 -0.96328119E-06 -0.46495453E-06
  0.86030121E-06 -0.17353329E-06 -0.94210524E-06  0.68192139E-06  0.89327645E-06
 -0.72481939E-06 -0.70830200E-06  0.72908566E-06 -0.18939568E-05  0.18400197E-05
  0.18607305E-06  0.71684337E-06 -0.97048723E-06  0.86985203E-06  0.10182909E-05
  0.16692232E-05  0.25297140E-05  0.31749065E-06  0.40741935E-06 -0.96383735E-06
  0.25542607E-05  0.73971556E-06  0.20815942E-05 -0.17946189E-04  0.39311713E-04
  0.40771694E-04  0.50645916E-04 -0.27429114E-04 -0.60435321E-04  0.22797151E-04
  0.83395501E-04 -0.47337379E-05 -0.31192899E-07 -0.51708350E-06 -0.29073069E-06
 -0.10137448E-05  0.54628114E-06  0.69102587E-06  0.51625801E-06 -0.48484741E-06
  0.13880157E-06  0.11191889E-04 -0.50970141E-05  0.39603713E-05  0.40124909E-04
  0.31520072E-05 -0.16821543E-04 -0.23255300E-05  0.14967291E-04 -0.17962598E-04

  0.12634477E-05 -0.39521230E-05 -0.82848613E-06 -0.14227875E-05  0.50148471E-05
  0.18892732E-05 -0.81722450E-06 -0.12255628E-05  0.38493760E-06  0.31314520E-06
  0.42701655E-05  0.60751153E-06  0.22258843E-05 -0.23217106E-05 -0.11438076E-05
  0.24876009E-05  0.75060334E-07 -0.18001502E-05 -0.46640420E-04 -0.10601636E-04
  0.27285116E-04 -0.26596714E-05  0.68519011E-04 -0.31896227E-04  0.28907120E-04
 -0.46161023E-05 -0.11935480E-04  0.35633465E-05  0.45912385E-04 -0.44228417E-05
 -0.26663279E-05  0.44975129E-05  0.40394691E-05 -0.41802949E-06 -0.29905327E-05
 -0.60914337E-05  0.43999568E-04  0.34146404E-04 -0.19277160E-04  0.27621705E-04
  0.23960702E-04  0.69652212E-05 -0.19508536E-04  0.78965992E-04  0.27024976E-04
  0.32943656E-05  0.34885202E-05  0.25340435E-05 -0.10819673E-05  0.51574976E-05
 -0.22816171E-05  0.47308134E-05  0.60511499E-06  0.63846859E-06  0.96892201E-06
 -0.18372247E-05  0.14884474E-06 -0.11167223E-05 -0.10883990E-05  0.94230173E-06
 -0.20426876E-05  0.73793412E-06 -0.34649510E-06 -0.90898067E-06  0.10372955E-05
 -0.50626535E-06  0.11331075E-06 -0.11008199E-05  0.49654698E-06  0.69634158E-06
  0.41823498E-06 -0.12449354E-05  0.40459973E-06  0.47607322E-06  0.17059017E-06
 -0.21375932E-05 -0.98463212E-06  0.32018165E-06  0.91003675E-06 -0.29549926E-06
 -0.15900575E-05  0.78896297E-06 -0.30558562E-05  0.20978572E-05  0.22261719E-06
  0.16349436E-05 -0.53048457E-06 -0.10677171E-05  0.12373015E-05 -0.33145137E-05
  0.40020260E-06 -0.66845511E-05  0.44087602E-05 -0.83991491E-05  0.32174793E-05
  0.23359380E-05  0.14001932E-04  0.50400430E-05 -0.18639445E-05 -0.15359529E-05
 -0.50368834E-06  0.52240964E-06 -0.10989867E-05  0.14660582E-05  0.11399527E-05
 -0.12376235E-05 -0.84923422E-06  0.21001546E-06 -0.18514069E-04  0.15066464E-04
  0.10952710E-05 -0.82556472E-05  0.16683703E-04 -0.14937277E-04  0.11509412E-04
  0.20339214E-05  0.20773534E-04  0.13212478E-05 -0.75474661E-08 -0.70012621E-06
 -0.18290234E-06 -0.10621703E-05 -0.16753534E-05 -0.11005533E-05  0.33015920E-06
  0.48329000E-06  0.17252777E-05  0.93251047E-05 -0.26300387E-04  0.47376986E-05
 -0.10332087E-04 -0.19084152E-04 -0.18006952E-04  0.15384632E-04  0.15656858E-04
  0.12561774E-08  0.22833261E-05 -0.39023781E-06  0.28661078E-06 -0.26110493E-05
  0.18116950E-05  0.67924687E-06 -0.12697854E-06 -0.33029895E-05 -0.26953603E-05
  0.93448668E-05  0.14373765E-05  0.48149465E-05 -0.12586518E-04 -0.28816787E-05
  0.19600132E-04 -0.35466769E-05  0.84044651E-05  0.56974988E-06 -0.49394837E-06
 -0.25657671E-05  0.24012452E-05 -0.19358479E-06 -0.19371222E-05  0.22398781E-06
 -0.11877043E-05 -0.83061877E-06 -0.82663810E-06 -0.11406150E-06  0.28169919E-06
  0.10375863E-05 -0.47146100E-05  0.19786233E-05 -0.42132174E-06  0.36406871E-06
  0.19170848E-05  0.22963467E-06 -0.13821212E-06  0.12314420E-06  0.38292717E-06
  0.65905179E-06 -0.31490491E-06 -0.15104875E-05  0.31152323E-06  0.62864293E-06
 -0.13349779E-05 -0.39717229E-05 -0.23879730E-06  0.78185617E-06 -0.20429356E-05
  0.82307259E-06  0.12903658E-05 -0.70110438E-06 -0.14608315E-05  0.86011698E-06
  0.23327005E-05  0.14995585E-05 -0.10352394E-05  0.23062128E-05 -0.13177104E-05
 -0.17676499E-05  0.18269401E-05  0.46779353E-07 -0.97901134E-06  0.83098965E-04
  0.36513946E-04  0.42455097E-05 -0.30561783E-04 -0.40155108E-04  0.79817707E-04
  0.39325189E-04 -0.56085277E-04  0.14727153E-05 -0.26205179E-05 -0.25295697E-05
  0.68159840E-06  0.95572768E-07 -0.76551884E-06  0.11131494E-05 -0.13520412E-06
 -0.10515079E-05  0.17532714E-04  0.87215057E-05  0.61144012E-05  0.39974749E-04
 -0.10632416E-05 -0.14601842E-04 -0.17821988E-04 -0.11452906E-04 -0.43670106E-05

 -0.29659491E-05 -0.31208229E-06  0.12245945E-05  0.13923713E-05 -0.63774725E-06
 -0.59347885E-05 -0.22502561E-06  0.51735774E-06  0.74307674E-06  0.31070897E-05
  0.30592299E-05  0.80241767E-05  0.17467391E-05  0.22558041E-05  0.95774689E-07
  0.17420157E-05  0.28091341E-05 -0.20185005E-05  0.69949722E-05  0.31983250E-04
 -0.14316483E-04  0.76959192E-04 -0.58212382E-04  0.99974657E-05 -0.26180470E-04
 -0.56729755E-05  0.10625327E-05 -0.29607532E-06 -0.44228417E-05  0.50828392E-04
  0.11445267E-05  0.14867403E-06 -0.56669512E-05 -0.20150955E-05  0.14529915E-05
  0.60106330E-05 -0.44087769E-04 -0.68849734E-04 -0.21533578E-04 -0.27108032E-04
 -0.93923688E-05 -0.18689366E-04  0.64676804E-04 -0.66281443E-04 -0.64201033E-04
 -0.14257902E-05 -0.11145492E-05 -0.13064401E-05 -0.24935573E-05 -0.10120853E-05
 -0.19465392E-05 -0.92002534E-06  0.87566428E-06 -0.24932255E-05 -0.27930701E-05
 -0.32055899E-05  0.21280868E-05  0.79553229E-06 -0.78409401E-06 -0.34346638E-05
  0.10842297E-06  0.95238693E-06 -0.20080470E-06 -0.78133428E-06  0.56575896E-07
 -0.81085762E-06 -0.12887429E-05 -0.12774380E-05  0.39389423E-05 -0.26415488E-06
 -0.54672721E-06  0.65725147E-07  0.25406266E-05 -0.58168849E-06  0.19199678E-05
  0.33381257E-06 -0.14241221E-05  0.23113399E-05 -0.80251925E-06  0.90243080E-06
  0.14768647E-05 -0.98777814E-07  0.71299967E-06 -0.32735115E-05 -0.14100266E-05
  0.10459406E-05 -0.13940365E-05 -0.52287068E-06 -0.18758789E-06  0.28622325E-05
 -0.72632604E-05  0.96444853E-05  0.22514773E-05  0.30069773E-06 -0.30964577E-04
  0.55990196E-04  0.61006142E-05 -0.18965698E-04  0.16556054E-05  0.32723749E-06
 -0.69007466E-06  0.40756676E-05  0.31121056E-05  0.14757730E-06 -0.10659928E-05
  0.20464883E-05  0.24842929E-05 -0.39293615E-05  0.69532483E-05  0.24771246E-05
  0.54138631E-04 -0.36673638E-04 -0.20451089E-04 -0.25758184E-04  0.89809255E-05
  0.12468778E-04 -0.14786516E-04  0.15572465E-05  0.15085598E-05  0.44756731E-05
  0.74248567E-06 -0.55093958E-06 -0.19056462E-05  0.15942287E-05 -0.32391908E-06
 -0.21947201E-05 -0.23083347E-05  0.41917380E-05 -0.62577226E-05 -0.14835612E-04
 -0.82024078E-05  0.38834629E-05  0.70583627E-05 -0.87354172E-05  0.11927328E-04
 -0.22053544E-05  0.44139302E-05  0.12504677E-05  0.79810252E-07 -0.49828263E-06
  0.46102647E-06  0.11836901E-05  0.13159602E-05 -0.23737362E-05  0.17984510E-04
  0.56490883E-06 -0.82007951E-06 -0.13856311E-05  0.22736953E-04 -0.54532307E-04
 -0.15210858E-04 -0.10037962E-05  0.52503887E-05  0.48263449E-06 -0.18668338E-05
 -0.43023446E-05 -0.15936855E-05 -0.21134636E-05  0.27706016E-05 -0.21571176E-05
 -0.19482342E-06 -0.66414419E-06  0.19572119E-05  0.10880534E-05  0.24426293E-06
 -0.12694724E-05  0.15892238E-05 -0.15534263E-05  0.24802829E-06 -0.79423820E-06
  0.66017306E-06 -0.85701158E-06 -0.17587067E-05 -0.53283563E-06 -0.84213174E-06
 -0.42514770E-06  0.35242536E-05 -0.86273500E-08 -0.73179875E-06 -0.39579189E-06
 -0.27909490E-06  0.64843165E-06  0.19619967E-05  0.46907210E-07  0.53963473E-07
 -0.33902495E-05  0.61604058E-06 -0.61104199E-06  0.15137006E-05  0.16076356E-05
 -0.52101207E-06  0.20138952E-05 -0.52625585E-06 -0.17552100E-05  0.11668479E-05
  0.19647071E-05 -0.24795150E-05  0.18628061E-05  0.13969737E-04 -0.21931100E-05
 -0.27562906E-04  0.71294411E-04 -0.38553378E-04  0.10073758E-03 -0.11989384E-04
 -0.33757599E-04  0.44571987E-04 -0.14020527E-05 -0.29500899E-05  0.33253370E-06
 -0.57427620E-06  0.92992838E-06 -0.77656778E-06  0.12721834E-06  0.42875306E-06
  0.11894177E-06 -0.15459036E-04 -0.19036984E-04  0.12437594E-04  0.18960457E-04
  0.23410139E-05 -0.80267790E-05 -0.26501438E-05 -0.56207778E-05 -0.14218385E-04

  0.54299558E-07  0.11452087E-05  0.18476617E-06 -0.31294092E-06  0.13616872E-05
 -0.72703524E-06 -0.73040701E-06 -0.11935295E-05 -0.43992979E-06 -0.58882762E-06
  0.16368577E-05 -0.20441059E-05 -0.22067922E-05  0.47796079E-05  0.21040237E-05
  0.67640556E-06 -0.15997457E-05  0.25796499E-05  0.34018093E-04  0.19888592E-04
  0.12349619E-04  0.46636642E-04  0.59033855E-05 -0.17088044E-04 -0.17163130E-04
 -0.84722608E-05 -0.36461494E-06 -0.13385777E-05 -0.26663279E-05  0.11445267E-05
  0.47006631E-04 -0.16457123E-04 -0.19535925E-04 -0.35589645E-07  0.60726078E-05
  0.21113166E-05 -0.20223091E-04  0.19143629E-05  0.30345655E-04  0.54772463E-04
 -0.70077010E-05 -0.53511272E-04  0.33061814E-04 -0.32441815E-04 -0.15134282E-04
  0.14945664E-06  0.12663742E-05 -0.67210798E-07 -0.61186083E-05  0.28956118E-05
  0.29145467E-05  0.30803343E-05 -0.11779603E-05  0.23333959E-06  0.82112596E-06
  0.15801676E-05  0.12604912E-05 -0.21355570E-05  0.30689476E-05 -0.15983984E-05
  0.49562288E-06 -0.16816460E-05 -0.47831040E-06  0.60358719E-06 -0.29052551E-06
 -0.22453970E-06 -0.16294534E-06  0.15042565E-05 -0.60868065E-06 -0.76507167E-06
 -0.95558863E-06 -0.40107670E-06  0.17929040E-05 -0.97197099E-06  0.55588795E-06
 -0.27636839E-05 -0.29082650E-06  0.36763815E-05 -0.15356424E-05 -0.14062248E-06
  0.77492289E-06  0.11667738E-05  0.20071949E-06 -0.10971281E-05 -0.32907929E-06
 -0.23151073E-05  0.26090084E-05 -0.14148820E-05  0.29545821E-06 -0.22195124E-06
 -0.16419303E-04  0.11611674E-04 -0.91509949E-05  0.17559802E-05  0.24713258E-04
  0.21864351E-04 -0.12049318E-04  0.13535957E-04 -0.93457964E-05 -0.16197044E-05
 -0.22201918E-05  0.58232905E-06 -0.56280623E-05  0.29683807E-05  0.39287515E-06
  0.11552319E-06 -0.11262937E-07  0.84112011E-06  0.16500403E-04 -0.17466056E-04
 -0.37140426E-04  0.12656015E-04  0.41394624E-05 -0.10166846E-04 -0.11297266E-05
  0.14046177E-04 -0.16511412E-04 -0.18091727E-05 -0.39551116E-06 -0.78379149E-06
 -0.16167550E-05  0.89177132E-06  0.16434415E-05 -0.83156860E-06 -0.32044757E-07
 -0.10569127E-05 -0.59369150E-07 -0.22072672E-04 -0.42234408E-05 -0.17511757E-04
 -0.27476615E-04  0.10954974E-05  0.19147876E-04 -0.46327172E-05 -0.92060071E-05
 -0.26027377E-05  0.10079143E-05  0.13948973E-05 -0.21939419E-05  0.10772690E-05
  0.82089443E-06  0.98761493E-06  0.52799768E-07 -0.15780507E-05 -0.45395520E-05
  0.44222244E-05  0.21498786E-05  0.12288733E-04  0.84852469E-05 -0.15702680E-04
  0.19989296E-05  0.95549295E-05  0.51729401E-05  0.18058247E-06 -0.20159677E-05
  0.12944066E-05  0.26629787E-05 -0.52390425E-06  0.10619230E-06  0.42619533E-06
  0.16592205E-05  0.33511766E-06 -0.11448392E-05 -0.19003061E-05 -0.12072099E-05
  0.11394032E-05  0.10524074E-05  0.72452757E-06 -0.10366735E-05  0.10402722E-05
  0.97918272E-06  0.71966899E-06 -0.15275535E-05 -0.33039298E-06 -0.81226909E-06
  0.22161723E-05  0.70274429E-06  0.21866416E-06 -0.15172856E-06 -0.68777775E-06
 -0.86111028E-06  0.48771909E-06  0.51730959E-06 -0.21244803E-05  0.75337748E-06
  0.19860388E-05  0.63281881E-06  0.50219682E-06  0.23292910E-05 -0.59152263E-06
 -0.27677881E-05 -0.16599979E-05 -0.37886647E-06  0.53013171E-06  0.22527351E-05
  0.42519963E-06  0.38185632E-06 -0.30302278E-05 -0.63459195E-04 -0.26816147E-04
 -0.84565009E-06 -0.12114201E-04  0.27536264E-04 -0.53705756E-04  0.41888774E-05
  0.36923323E-05 -0.83980965E-05  0.50303510E-06  0.39769125E-06  0.10216800E-05
  0.21873953E-05 -0.22927508E-05  0.18077410E-05 -0.13571820E-05  0.91061141E-06
  0.27599379E-06  0.19159777E-04  0.34471927E-05  0.14219082E-05 -0.14498202E-04
 -0.52811818E-05  0.29130302E-04 -0.39924917E-05 -0.73158819E-05 -0.57609000E-05

  0.28529445E-05 -0.28438913E-05 -0.32815767E-06  0.77046936E-06 -0.65450998E-06
  0.40347089E-06  0.77851227E-06 -0.16390928E-05 -0.33256839E-05  0.23387149E-05
 -0.48026730E-05 -0.20046516E-05  0.30902338E-05 -0.14686857E-04  0.85157228E-05
 -0.24345188E-05  0.10229663E-05  0.57277225E-05 -0.36056944E-04 -0.17964443E-04
 -0.30721251E-04  0.18176073E-04 -0.38013748E-04  0.31741829E-06  0.36819074E-04
  0.27589034E-04  0.21322484E-04 -0.59646162E-06  0.44975129E-05  0.14867403E-06
 -0.16457123E-04  0.65841689E-04 -0.18483748E-04  0.39621321E-05  0.22922985E-06
 -0.12277289E-05 -0.36041272E-05 -0.48497263E-04 -0.17342028E-04 -0.48634988E-05
  0.61524620E-04 -0.31743239E-04  0.52879612E-04  0.54522606E-04 -0.25187165E-04
 -0.24884194E-05 -0.10850471E-04  0.22169182E-05  0.24242336E-05 -0.68369648E-05
  0.36009019E-05 -0.65720824E-05 -0.12801183E-06  0.10579022E-05  0.60950676E-06
 -0.29291194E-05 -0.19071085E-05  0.33428689E-05 -0.82071293E-05 -0.93418056E-06
  0.54607028E-06 -0.19425187E-06 -0.34962726E-05 -0.12497028E-06 -0.25058159E-06
 -0.10346230E-05  0.47578720E-06 -0.17199985E-05 -0.13054016E-05  0.12567465E-05
  0.12754250E-06 -0.15071819E-05 -0.10478085E-05 -0.60074365E-05 -0.71892060E-06
  0.47716965E-06 -0.13808299E-05  0.23173021E-05  0.26009230E-06 -0.15876592E-06
 -0.14779603E-05 -0.11036464E-05 -0.12164452E-05  0.73273371E-06 -0.63551216E-06
  0.61200268E-05  0.52983027E-07  0.34661054E-06  0.28125097E-06 -0.30781138E-05
  0.27492474E-05  0.34736822E-06 -0.80324028E-06  0.65208348E-05 -0.47331734E-04
  0.32464418E-05  0.22127097E-04  0.54011314E-05 -0.96579953E-05  0.13506388E-05
 -0.25813563E-05 -0.10686905E-05  0.90571222E-06 -0.65152415E-05  0.29415070E-06
 -0.17439430E-05 -0.19417768E-05  0.31766714E-05 -0.17923835E-04 -0.10978799E-04
 -0.16213268E-04  0.46145173E-04 -0.22516548E-04 -0.33682030E-04 -0.28729505E-04
 -0.45327046E-04 -0.11771853E-04  0.13652956E-05 -0.70646177E-05  0.17286016E-05
  0.59059576E-06 -0.22844924E-05 -0.26719243E-05  0.29163889E-05  0.20031676E-05
  0.31995957E-05 -0.13463426E-04  0.83995870E-06  0.10196806E-04  0.38910191E-04
  0.38189230E-04 -0.66222842E-05 -0.42711447E-04  0.14357112E-04  0.20857711E-04
 -0.98441645E-06 -0.11508262E-05  0.10018964E-05 -0.45366927E-06 -0.59411673E-05
  0.35580843E-05  0.15279086E-05 -0.12895319E-05  0.93003938E-06 -0.74272609E-05
 -0.34609745E-04  0.16616647E-04  0.87463539E-05 -0.22792745E-04  0.56728643E-05
 -0.22388138E-05 -0.18000120E-05  0.75803927E-05 -0.20776274E-05 -0.74830065E-06
 -0.69723022E-06 -0.39733560E-06 -0.27724062E-05  0.24090294E-05  0.23186859E-05
 -0.53909638E-06  0.24058087E-06 -0.20497955E-06  0.33742980E-05  0.31801421E-06
 -0.17723443E-08  0.15081796E-05  0.49899399E-06  0.27735596E-06 -0.29194632E-07
 -0.19425648E-05 -0.49002650E-06  0.71444538E-06 -0.57619442E-06  0.74684738E-06
  0.17959148E-05 -0.35627195E-06 -0.11241774E-05 -0.35783161E-06 -0.75172352E-06
  0.60015320E-06 -0.18314533E-05  0.15319097E-05  0.11746692E-06 -0.11064001E-05
  0.18830707E-05 -0.14405257E-05 -0.37418312E-06 -0.11214832E-05  0.49659983E-05
 -0.57603178E-06  0.27907104E-05 -0.36425910E-06 -0.35502763E-05  0.18359279E-05
 -0.19446213E-06  0.42045514E-05  0.19252843E-05 -0.63588024E-05  0.10287401E-03
 -0.70831643E-06  0.22730267E-04 -0.76799484E-04  0.91278463E-04  0.65948653E-04
  0.17541295E-04 -0.13076271E-04  0.15761852E-05 -0.50487909E-06  0.97346747E-06
 -0.60740664E-06  0.34126063E-05 -0.32749910E-06  0.40552301E-06  0.32332182E-06
 -0.17078263E-05  0.31627552E-05  0.18978621E-04 -0.20385125E-04  0.16120077E-04
  0.18505373E-04 -0.36813188E-04  0.57650340E-05 -0.90326625E-05  0.51241992E-05

  0.36761384E-07 -0.23491162E-05  0.12952456E-05 -0.48425273E-06 -0.25294277E-05
  0.44431134E-05  0.12191503E-06  0.10530872E-05  0.14453082E-05 -0.15683842E-05
  0.72536118E-05  0.54687363E-06  0.36958729E-05  0.59356610E-05 -0.18584017E-04
  0.34532308E-05 -0.15678604E-05 -0.69628622E-05  0.19980147E-04  0.13398021E-04
  0.49849006E-04  0.24065945E-04 -0.16181464E-05 -0.12333442E-04  0.90764759E-05
 -0.27156383E-04 -0.80947973E-04  0.13601777E-05  0.40394691E-05 -0.56669512E-05
 -0.19535925E-04 -0.18483748E-04  0.80677331E-04 -0.56960523E-06  0.35494812E-06
 -0.33393615E-05  0.51892409E-04  0.50970158E-04 -0.31533119E-04 -0.74601743E-05
 -0.47057294E-04  0.10966382E-03 -0.83210064E-04  0.26400515E-04  0.65988685E-04
 -0.29333176E-06  0.50308408E-05 -0.21882247E-05  0.38952803E-05  0.53544633E-05
 -0.41760215E-05  0.33811283E-05  0.24370029E-05 -0.11022745E-05 -0.45618470E-06
 -0.12415092E-05  0.50729432E-05 -0.13849349E-05  0.48303498E-06  0.75570904E-05
 -0.64476965E-06  0.14004324E-05  0.15633055E-05  0.73506144E-06  0.32501118E-07
  0.42457677E-05  0.85668857E-06 -0.12496959E-05  0.53366071E-05  0.68738087E-07
  0.14838765E-05  0.26323652E-05 -0.22935622E-06 -0.21110098E-05  0.24139008E-05
  0.19926579E-05  0.26384646E-05 -0.11840593E-04  0.16121936E-05 -0.85523283E-07
  0.10704236E-05  0.34179787E-05 -0.17274219E-05  0.55013044E-05  0.26616928E-05
  0.27322497E-05 -0.44375935E-05  0.73733731E-06  0.29964687E-06 -0.13895556E-05
 -0.71675236E-05  0.18784164E-04 -0.68044713E-05  0.24225410E-04  0.13028954E-04
 -0.96055054E-04 -0.68099402E-05  0.24322439E-05  0.39232217E-05 -0.55009424E-06
  0.20812568E-05 -0.63201938E-05  0.23072817E-05 -0.34351721E-05  0.23340971E-05
  0.37363115E-06  0.82304549E-06  0.26384920E-05 -0.25133136E-04 -0.15397255E-04
  0.53652020E-04  0.52155374E-04 -0.50124963E-04  0.96297640E-04  0.17949802E-04
  0.40934778E-04 -0.20235361E-04 -0.60799345E-06 -0.17821382E-05  0.65919621E-07
 -0.85676503E-06  0.20986402E-05  0.33470282E-05 -0.64531027E-06  0.13272664E-05
  0.44236575E-06 -0.87434814E-06 -0.17579628E-04  0.31399117E-04  0.14444766E-04
  0.40974874E-04 -0.73807067E-05 -0.39643008E-04 -0.46005749E-04  0.46376975E-04
  0.16886194E-05 -0.14871145E-05 -0.89977964E-05  0.15113546E-05  0.44308546E-05
 -0.48163401E-05 -0.86721009E-06  0.18819144E-05  0.56751797E-06 -0.78842264E-05
  0.31336941E-04 -0.40049386E-04 -0.18244057E-04  0.10891840E-04  0.20499605E-04
  0.13897227E-04 -0.94473964E-05 -0.29589967E-04  0.16390701E-05  0.15250399E-05
 -0.26692642E-05  0.19792612E-05  0.13701660E-05 -0.10338522E-05 -0.10074094E-05
 -0.10659319E-05  0.47390827E-07 -0.98984278E-06 -0.91214871E-06 -0.16988937E-06
  0.78794084E-08  0.15360730E-05 -0.31835258E-05  0.83487820E-06  0.82540274E-07
 -0.16203676E-06  0.11840951E-05  0.10491112E-05  0.45454845E-05  0.14399252E-05
  0.45093225E-07  0.93103272E-07 -0.95134442E-06  0.90781184E-06  0.10180396E-05
  0.16694105E-05 -0.20611535E-05  0.90526956E-06  0.37783710E-05  0.27635966E-06
 -0.63663531E-05  0.53248535E-06 -0.15894352E-05 -0.45869798E-05 -0.25523690E-05
  0.67482575E-05  0.35473750E-06  0.29404910E-05 -0.17066346E-05 -0.56882616E-05
 -0.27975019E-05 -0.51998422E-06  0.26864907E-05  0.37535619E-04  0.93692355E-05
 -0.87853485E-04 -0.81048530E-05 -0.12246949E-04  0.94947505E-04 -0.19457344E-04
  0.21142260E-04 -0.22107037E-04  0.57444471E-06  0.81658605E-06 -0.31419267E-05
  0.10217595E-05  0.14739527E-05 -0.52844437E-05  0.18777272E-05 -0.37529521E-05
 -0.75669824E-06  0.19791479E-04  0.51063710E-05  0.10207042E-04  0.31684692E-04
 -0.13770859E-04 -0.14441423E-04  0.83814751E-05 -0.16095451E-04 -0.33530780E-05

  0.66381739E-06  0.31373000E-05 -0.41946784E-06  0.74919374E-06  0.55082667E-06
  0.10391617E-05 -0.71639585E-06 -0.13888669E-05  0.79141493E-06  0.14577537E-05
 -0.48744091E-05 -0.55612069E-06  0.16750430E-05 -0.28838374E-05  0.36106157E-05
 -0.53829622E-06  0.10008714E-05 -0.17053456E-05 -0.97422982E-05 -0.33862115E-04
 -0.19063170E-04 -0.14441760E-04 -0.18420615E-04 -0.31128212E-06  0.44086934E-05
  0.13740712E-04  0.23160708E-04  0.69380810E-06 -0.41802949E-06 -0.20150955E-05
 -0.35589645E-07  0.39621321E-05 -0.56960523E-06  0.27993794E-04 -0.26891612E-05
  0.19159465E-05 -0.74306754E-05  0.17237383E-04 -0.59266640E-04  0.49193155E-04
  0.28327400E-04 -0.40050401E-04  0.17998638E-05  0.22015819E-04  0.29076308E-04
 -0.43330370E-06 -0.65330237E-05  0.60898187E-06  0.45633663E-05 -0.54190125E-05
  0.28421319E-05 -0.13907380E-05  0.11599055E-05 -0.75792465E-06  0.21624984E-05
  0.74739468E-06 -0.10373662E-05  0.25610154E-06 -0.97699588E-06  0.17055171E-06
 -0.62138935E-06 -0.33870302E-06 -0.18480970E-05  0.87629878E-06  0.30461987E-06
  0.61932241E-06 -0.11190754E-06 -0.62910084E-06 -0.84438715E-07 -0.69708850E-06
 -0.56503917E-07 -0.20402020E-06  0.27720913E-05  0.21152282E-05  0.33365194E-07
 -0.23035043E-05  0.24028275E-05  0.88856238E-06  0.33367206E-06 -0.11009370E-06
  0.19893438E-06 -0.46886587E-06  0.66103980E-06  0.28078626E-05  0.11361422E-05
  0.11778374E-05 -0.14813910E-05  0.79450784E-06 -0.64821398E-06 -0.32477166E-05
 -0.11377529E-04 -0.50706533E-05  0.10147336E-04  0.35879922E-05 -0.27223575E-04
  0.83535309E-05  0.41416717E-05 -0.18540600E-05 -0.54231501E-06 -0.70279043E-06
 -0.29946607E-05 -0.14318798E-05 -0.23194665E-05 -0.11174354E-05  0.21782693E-05
  0.14736668E-05 -0.11191389E-05  0.12657769E-05 -0.84248732E-05 -0.59057981E-05
 -0.15106475E-04  0.28593759E-04 -0.51893950E-05  0.12967341E-04 -0.12599963E-04
 -0.29131458E-04 -0.10910442E-04  0.18384944E-05  0.24343412E-06  0.62013785E-06
  0.32126296E-06 -0.18239364E-05 -0.87692208E-06 -0.39514151E-06  0.20553658E-05
  0.37803549E-05  0.79363333E-05  0.94642000E-05  0.31651977E-05  0.18985111E-04
 -0.37601971E-06 -0.31221577E-04 -0.22317799E-04  0.11189766E-04  0.11192089E-04
  0.26169755E-06 -0.13149873E-05  0.44751043E-06 -0.18477075E-05  0.12378239E-05
  0.81482106E-06 -0.11297765E-05 -0.42106060E-07  0.19123087E-06 -0.12453955E-04
 -0.18815090E-04 -0.48951874E-05  0.60890854E-05  0.13280730E-04  0.23863240E-05
  0.73948319E-05  0.19400509E-05 -0.98171123E-05 -0.12311055E-05 -0.58965847E-06
 -0.70391495E-06  0.61814416E-06 -0.19275583E-05  0.13168065E-05 -0.71726191E-06
  0.33589085E-06  0.91907879E-06 -0.12952887E-06  0.35912574E-05  0.77915238E-06
 -0.78566042E-07 -0.25989763E-05 -0.17257093E-05  0.40382292E-06  0.16826024E-06
 -0.18569066E-06  0.57443155E-06  0.19085774E-05  0.20284348E-07 -0.39592995E-06
  0.16188155E-05 -0.41369967E-07  0.26864317E-06 -0.32288881E-06  0.27424687E-07
  0.13542819E-05  0.65850193E-06  0.62275506E-06 -0.25386691E-06  0.49403714E-06
 -0.24597493E-06 -0.27605936E-05  0.11883082E-05 -0.12895326E-05 -0.87932525E-06
 -0.18303123E-05 -0.30526969E-05  0.25615438E-05  0.16871600E-05 -0.12656653E-05
 -0.10388292E-05  0.69828845E-06 -0.28479674E-05  0.26348906E-05 -0.74206555E-04
 -0.41469991E-04 -0.12913342E-04  0.25039908E-04 -0.10647558E-03  0.28335141E-04
  0.22839678E-04 -0.39181877E-04  0.79331888E-06  0.57717449E-06  0.68383132E-06
  0.49365531E-06  0.25829744E-05 -0.14793830E-05 -0.17109106E-05 -0.38763679E-06
 -0.18850802E-05  0.10018782E-04 -0.11149583E-04  0.23884702E-04  0.39546270E-04
  0.21902863E-04 -0.33776293E-04  0.72773732E-05 -0.36571526E-05 -0.88396246E-05

  0.33359353E-06 -0.40995996E-08  0.22045021E-05 -0.10824330E-05 -0.10113691E-05
  0.12953155E-05 -0.27537624E-06 -0.96722649E-06 -0.97278062E-06 -0.31344097E-05
 -0.23368813E-06 -0.51989443E-05 -0.95062150E-06  0.11198724E-05 -0.24957892E-05
  0.44300815E-06 -0.12686706E-05  0.36891954E-05  0.16247503E-04 -0.52568209E-05
 -0.13103110E-05  0.59908021E-05  0.15022387E-04 -0.97144162E-05  0.19832674E-05
 -0.75602718E-05 -0.49653181E-05 -0.51565246E-05 -0.29905327E-05  0.14529915E-05
  0.60726078E-05  0.22922985E-06  0.35494812E-06 -0.26891612E-05  0.29280807E-04
  0.38075316E-05  0.24223581E-05 -0.61546172E-04  0.43631992E-04 -0.60119491E-04
  0.80731221E-05 -0.33831232E-04 -0.14689905E-04 -0.36965451E-04 -0.93847387E-04
  0.13426280E-05 -0.56809483E-06 -0.21519828E-05 -0.16076842E-05  0.65420363E-06
  0.59884035E-06  0.24709330E-06  0.52710126E-06  0.27245693E-05  0.13602266E-05
 -0.50215399E-06  0.87189716E-06 -0.17603465E-05 -0.26743537E-06  0.39088195E-06
  0.32774153E-08 -0.26983075E-06 -0.15746931E-05  0.91401103E-06 -0.57187608E-06
  0.22491126E-06 -0.20264270E-06 -0.12433890E-05  0.38467280E-07 -0.28771645E-06
 -0.78884358E-06  0.45389765E-06  0.94697610E-06 -0.39341061E-06 -0.37945290E-06
 -0.50179689E-07 -0.33152322E-06  0.17435877E-06 -0.97575914E-06 -0.27996399E-05
  0.76592248E-07  0.15335675E-05  0.18219487E-05  0.20322251E-05  0.28830017E-06
 -0.21471056E-05  0.14158237E-05 -0.18109667E-05  0.11666677E-05 -0.17069237E-05
 -0.86248290E-05  0.12010799E-04  0.32460268E-05 -0.35292265E-05  0.17917356E-04
 -0.70387810E-05 -0.52620019E-05  0.57646537E-05 -0.49474963E-05 -0.95501617E-06
  0.11110891E-05 -0.94474024E-06 -0.14851279E-06 -0.91390583E-06 -0.11572296E-05
  0.14423143E-05 -0.19892013E-05  0.66115775E-06  0.45961611E-05 -0.36903352E-05
  0.16511420E-05  0.57718668E-05 -0.17152786E-04  0.18836240E-04 -0.59389881E-05
  0.25297201E-04 -0.97455238E-05 -0.18689802E-05 -0.11415194E-05 -0.35769168E-06
 -0.32811963E-06  0.62422090E-06  0.80336087E-06  0.38560668E-06 -0.87904305E-06
 -0.20874423E-05 -0.10041055E-04 -0.11726246E-04  0.14488340E-04  0.14710440E-04
 -0.20479344E-04 -0.59563363E-05  0.14994214E-04 -0.26706516E-04 -0.99661693E-05
 -0.22956394E-05  0.44724966E-06 -0.10356365E-05 -0.27853994E-07  0.10092077E-05
 -0.41155337E-06 -0.66237135E-06 -0.22749221E-05  0.89918005E-06 -0.30141419E-05
 -0.98556491E-05 -0.16573835E-04 -0.57630816E-05  0.20255618E-05  0.12425702E-05
  0.88179973E-06  0.83606885E-06  0.20220311E-04  0.92666781E-06  0.34468676E-06
  0.14359407E-05  0.13254190E-05 -0.27089621E-06 -0.98687302E-06  0.32233667E-06
  0.12218610E-05 -0.28519592E-07 -0.47936394E-06  0.35658493E-06 -0.20669660E-05
  0.50784731E-06  0.46420752E-06 -0.86313823E-06  0.21551340E-06 -0.81682349E-06
  0.38672454E-06  0.40397933E-06 -0.99612500E-06  0.67574039E-06  0.49903768E-06
 -0.10246133E-05 -0.47380042E-07 -0.98183830E-06 -0.51750470E-06 -0.21459685E-05
  0.18022940E-05  0.58526595E-06  0.69671719E-06 -0.93866122E-08 -0.20848391E-05
 -0.16784465E-05  0.14904239E-06 -0.13381967E-05  0.13506376E-05  0.19089094E-05
 -0.16443964E-06 -0.12838272E-05  0.10288737E-05 -0.20591573E-05  0.39952776E-06
 -0.13096077E-05  0.28400681E-08 -0.12797544E-05 -0.24664624E-04  0.67091981E-05
 -0.36142611E-04  0.20886550E-04 -0.15719118E-04  0.88444733E-04 -0.76195430E-05
 -0.42656329E-04  0.14538646E-04 -0.24360535E-06  0.63975388E-06  0.59185764E-06
 -0.50929535E-06  0.15179909E-06 -0.24461955E-05 -0.10939260E-05 -0.49237555E-07
 -0.95480692E-07 -0.24825475E-05 -0.52377441E-05 -0.11627247E-04 -0.49519626E-04
  0.21754001E-05  0.14682526E-04  0.46339276E-07 -0.40770237E-05  0.21327475E-04

  0.12732640E-05  0.29143972E-05  0.21208160E-05 -0.11868055E-05  0.16977339E-05
 -0.96411857E-06  0.97142923E-06  0.96113256E-06 -0.16060749E-05  0.12167155E-05
  0.19746937E-05  0.25416274E-05  0.19297730E-05  0.40618164E-05 -0.84943510E-05
 -0.58704188E-06  0.37894266E-05  0.33652179E-07  0.10632785E-04  0.34823330E-04
  0.15020446E-04  0.14055706E-04  0.13902567E-04  0.24638426E-06  0.51843248E-05
 -0.19298675E-04 -0.19722064E-04 -0.26239609E-05 -0.60914337E-05  0.60106330E-05
  0.21113166E-05 -0.12277289E-05 -0.33393615E-05  0.19159465E-05  0.38075316E-05
  0.41257784E-04 -0.62234393E-04 -0.42624413E-04  0.48776629E-04 -0.18862925E-04
 -0.61983550E-04  0.10451966E-04 -0.69647789E-05 -0.78575875E-04 -0.41866968E-04
  0.17684920E-05 -0.53074689E-06  0.23134283E-05  0.15062089E-05 -0.73622535E-06
  0.56086391E-06 -0.14104977E-05  0.37150327E-05  0.32194267E-05 -0.48770058E-06
  0.16666830E-05  0.89917455E-06 -0.17792669E-05  0.47920879E-07  0.11867665E-05
 -0.10569766E-05  0.88652734E-06  0.10013805E-05  0.10049465E-05  0.84235350E-06
  0.79427697E-06  0.11926981E-06 -0.25081133E-05  0.12874175E-05 -0.59420829E-06
 -0.59998170E-06 -0.23785235E-05  0.11639431E-05  0.61137464E-06  0.34548395E-05
 -0.10113300E-05  0.21735196E-05  0.31998127E-06  0.22455906E-06  0.12194573E-06
 -0.48031914E-07  0.20816216E-05  0.82809579E-06 -0.14757133E-05 -0.17752987E-05
 -0.10967869E-05 -0.25811076E-06 -0.43491836E-05 -0.22435956E-05  0.18220771E-05
  0.80518087E-05  0.36842944E-04 -0.87155439E-05  0.13313191E-04 -0.18617895E-04
 -0.94363841E-05  0.81828044E-05  0.19504316E-05 -0.17544409E-05 -0.17479484E-05
 -0.24057147E-05 -0.81238103E-06 -0.17977018E-06 -0.24568153E-05 -0.21840041E-05
  0.25572480E-05  0.11336141E-05 -0.63543477E-06 -0.21022011E-05  0.98507907E-05
 -0.14754346E-04  0.20017784E-04 -0.23777467E-04 -0.50575713E-04  0.12577358E-04
  0.34726563E-04 -0.31983751E-04  0.65919637E-06 -0.43350912E-06  0.23936644E-05
 -0.11005458E-05  0.12432842E-05  0.17015372E-05  0.17401476E-05 -0.12527140E-05
 -0.68061073E-06 -0.63023242E-05  0.57150024E-05  0.45270136E-05  0.45328624E-04
 -0.16738257E-04 -0.19770409E-05 -0.10223206E-04 -0.12300631E-04 -0.90051655E-05
  0.65818853E-07 -0.39474037E-05 -0.30296836E-06  0.41292140E-06  0.17244517E-05
 -0.26313712E-05  0.72913115E-07  0.36785069E-06 -0.38632272E-05 -0.80550294E-05
 -0.10707233E-04 -0.15686145E-04 -0.10710841E-04  0.21743072E-04 -0.41847197E-05
  0.14772079E-04  0.11109437E-04  0.75508334E-05 -0.22254801E-06  0.11955936E-05
  0.12744693E-05  0.13383980E-06 -0.10407474E-05  0.63826764E-06 -0.28704471E-06
 -0.12849872E-06  0.62481915E-06  0.84156255E-06  0.31155288E-05 -0.87920027E-06
  0.59581690E-06 -0.35202320E-05  0.22422231E-05  0.10283894E-05 -0.19519076E-05
 -0.71215080E-06 -0.77385613E-09  0.73506786E-06  0.39854443E-06 -0.43734222E-06
  0.92593890E-06 -0.46095193E-06 -0.27518736E-06  0.77076928E-06 -0.14566208E-05
  0.31004191E-06  0.22065407E-05  0.16362578E-05 -0.38996302E-06 -0.20119726E-05
  0.11951932E-05 -0.88600636E-06 -0.14807171E-05 -0.18434622E-05 -0.14860104E-05
 -0.11137869E-05 -0.22012066E-05 -0.75509165E-07 -0.19738723E-05  0.25612729E-05
 -0.19715753E-05  0.26128511E-07 -0.16372967E-05  0.11750937E-05 -0.51039786E-05
 -0.26791142E-04  0.18278748E-04 -0.46493023E-05 -0.57420242E-04 -0.25040881E-04
 -0.29195393E-04  0.34975168E-05 -0.49112070E-07 -0.14830732E-06  0.14663551E-05
 -0.27350225E-06  0.44059314E-06 -0.22117224E-05 -0.15347397E-05 -0.46319601E-06
 -0.17158033E-05 -0.22554125E-04 -0.58396801E-05  0.25432956E-04  0.95309877E-05
 -0.98231399E-06 -0.36912119E-04  0.71729187E-05 -0.55346284E-05  0.13279210E-04

 -0.25930030E-04 -0.12235473E-04  0.16065222E-05 -0.92946089E-06 -0.46466300E-05
  0.68399383E-05 -0.35598597E-05 -0.59053988E-06  0.43451732E-05 -0.27974300E-05
  0.10842048E-04 -0.20619687E-04  0.23543060E-04 -0.33665927E-05 -0.13750464E-04
  0.51729960E-05 -0.74072517E-05 -0.21243131E-05  0.52878398E-04 -0.19167828E-04
 -0.15559553E-03  0.16449323E-03  0.20440856E-03 -0.25444770E-03 -0.12286745E-03
 -0.84744663E-04  0.20813323E-04 -0.13157574E-04  0.43999568E-04 -0.44087769E-04
 -0.20223091E-04 -0.36041272E-05  0.51892409E-04 -0.74306754E-05  0.24223581E-05
 -0.62234393E-04  0.21710229E-02  0.66002142E-03  0.85304278E-03  0.21844546E-03
 -0.15245532E-03  0.11671541E-03 -0.12643454E-04  0.32999963E-03  0.40210614E-04
 -0.84674772E-05  0.19919622E-04  0.15266871E-04 -0.16556550E-04  0.23676136E-04
  0.18761712E-05 -0.42975596E-05 -0.77100526E-06 -0.50774499E-05  0.19553699E-06
 -0.51502022E-05 -0.18731144E-05  0.85189535E-05  0.14774419E-05  0.62511594E-05
 -0.68820357E-05 -0.43712868E-05 -0.33578285E-05  0.47864242E-05  0.54527420E-05
 -0.57505293E-05 -0.38891006E-05  0.20392400E-04 -0.12613583E-04 -0.13199905E-04
 -0.36609802E-05  0.43061283E-05 -0.42304548E-05 -0.53635031E-05  0.31044167E-05
  0.41384790E-05  0.13466552E-04 -0.17211825E-04 -0.12933561E-06 -0.99498949E-06
 -0.30706053E-06  0.33890267E-05 -0.86520450E-05  0.32920506E-04  0.14996209E-05
 -0.90594129E-05  0.50701168E-06 -0.65898772E-05  0.39274239E-05 -0.24452239E-04
 -0.15637325E-03  0.15836127E-03  0.23840518E-04 -0.15963453E-04  0.11514898E-04
  0.14748031E-04  0.56226244E-04 -0.16638382E-04  0.31511777E-04  0.47745737E-05
  0.68254420E-05 -0.78533688E-06  0.25735848E-04 -0.18783776E-05  0.38269412E-05
 -0.72672298E-05 -0.65545768E-05  0.15349137E-05 -0.94772952E-04  0.12990328E-03
  0.14456479E-03 -0.23109428E-03  0.15298746E-03 -0.32910666E-04  0.11495651E-03
 -0.50337097E-04  0.48233947E-04 -0.19082109E-04  0.65726594E-05 -0.17983657E-04
 -0.25199338E-05  0.17199320E-04 -0.78916562E-05 -0.24882070E-05 -0.20189241E-05
  0.69761960E-05 -0.90828645E-04  0.84268342E-05  0.10169650E-03 -0.33011698E-03
  0.19012346E-03 -0.40995765E-04  0.12260391E-03  0.23062624E-03  0.19768245E-03
 -0.51662262E-05  0.85093499E-06 -0.18248056E-04  0.82118108E-05  0.10758559E-04
  0.19720509E-05 -0.48446978E-05  0.62532556E-05 -0.74775164E-05  0.11117913E-03
  0.72055973E-04 -0.10129288E-03 -0.15879999E-03  0.14704655E-04  0.10232654E-03
 -0.28284322E-04  0.41580422E-04  0.15338330E-03 -0.33237867E-06  0.15705140E-04
 -0.96299820E-08  0.15117231E-04 -0.11562898E-04 -0.12630590E-04  0.69142265E-05
 -0.15125475E-04  0.68486555E-05 -0.17152222E-05  0.33958138E-05 -0.48036213E-05
 -0.66738468E-05 -0.15760052E-04  0.16300263E-04 -0.48912233E-06  0.11651834E-04
  0.82094730E-05  0.95588856E-05  0.11619444E-05  0.11225989E-04  0.13019530E-05
  0.55368951E-05 -0.58371843E-05 -0.32450102E-05 -0.53655377E-05  0.12761233E-05
 -0.61926440E-05  0.23579198E-05 -0.90236224E-05  0.79866214E-05  0.90675708E-05
  0.10817434E-05  0.75926288E-05  0.18184937E-05  0.35752881E-05 -0.35442911E-04
 -0.27621105E-05 -0.40701499E-04  0.13982935E-04 -0.31174782E-05  0.27185305E-04
 -0.17346795E-04  0.18459857E-04 -0.24009312E-04  0.88194514E-04 -0.34797929E-03
 -0.28655061E-03  0.23158356E-03  0.16686102E-03 -0.64409598E-03 -0.26675804E-03
  0.72125120E-04  0.11524775E-03 -0.28314767E-05 -0.79820845E-05 -0.26850737E-05
 -0.17526310E-04  0.68177695E-05  0.16599698E-04 -0.14223929E-05  0.13039732E-05
  0.59520810E-05 -0.13101944E-04 -0.14453040E-04 -0.14584914E-03  0.25786521E-03
 -0.78415411E-04  0.12331136E-03 -0.12137512E-03  0.84576318E-04 -0.22741828E-03

 -0.71147386E-05  0.18479113E-04 -0.27853193E-04  0.19157167E-05  0.22627359E-04
 -0.36234753E-05 -0.86439522E-05  0.17227345E-05  0.22111485E-04  0.94087124E-05
  0.21207870E-04  0.14335174E-04  0.22612487E-04  0.70492215E-05 -0.16952795E-04
  0.13555172E-05  0.43109911E-05 -0.28561479E-04 -0.36356315E-03 -0.17555332E-03
  0.99409066E-04 -0.21695138E-03 -0.36217453E-03  0.13789390E-03 -0.50044856E-03
 -0.29900881E-03 -0.20085306E-03  0.57561729E-04  0.34146404E-04 -0.68849734E-04
  0.19143629E-05 -0.48497263E-04  0.50970158E-04  0.17237383E-04 -0.61546172E-04
 -0.42624413E-04  0.66002142E-03  0.35896904E-02  0.12140897E-02  0.37806594E-03
 -0.82444489E-04  0.10402097E-03 -0.14604121E-03  0.32163126E-03  0.36695100E-03
 -0.19239991E-04  0.14877729E-04  0.88589212E-05  0.23420009E-04 -0.14219232E-05
  0.21840387E-04  0.69667367E-06 -0.18886259E-04 -0.17238565E-04  0.15311411E-04
  0.13919528E-04  0.19971762E-05 -0.26793322E-06  0.87969343E-05  0.66274017E-05
 -0.75015059E-06  0.34938747E-05  0.19212801E-06 -0.46776603E-05  0.63011120E-05
  0.63007443E-05 -0.32358024E-05  0.15513576E-04  0.29284109E-05 -0.10874034E-04
 -0.28568673E-05 -0.75920517E-06 -0.33178059E-05 -0.11704297E-04 -0.49607258E-05
  0.95085235E-06  0.89625896E-05 -0.11460972E-04  0.90134407E-05  0.27589366E-05
 -0.21034937E-05 -0.47686077E-05 -0.22432702E-05  0.22833608E-04  0.30230068E-04
  0.46953131E-05 -0.25514011E-04  0.30061628E-04  0.14234282E-04 -0.26376230E-05
 -0.14427289E-03 -0.21006170E-03  0.16619223E-03 -0.62554371E-04  0.19708491E-03
  0.17303536E-04  0.13470290E-04  0.11435337E-04  0.91652812E-04  0.30158691E-05
 -0.19537445E-04  0.58081549E-05 -0.12008202E-04  0.63132817E-06  0.26648644E-04
 -0.77755656E-05  0.91048662E-05  0.32079704E-04 -0.91795649E-05 -0.14136498E-03
 -0.26728672E-03  0.55842652E-04  0.14471176E-03  0.37045272E-04  0.18559916E-03
 -0.19983744E-03 -0.92824046E-04  0.60434760E-05  0.16553973E-04 -0.35106177E-04
 -0.14735926E-04  0.28510509E-04  0.36433024E-06  0.30995865E-05 -0.10031757E-05
  0.69450617E-06 -0.21556116E-03 -0.64820066E-05 -0.16532612E-03 -0.17009394E-03
  0.13025261E-04 -0.13786126E-03  0.22633976E-03  0.22295881E-03 -0.17910410E-03
  0.63176800E-05  0.23177821E-05  0.59064026E-05 -0.65178102E-05  0.12915795E-04
  0.16535510E-04 -0.41014408E-05  0.51748594E-05 -0.87637382E-05 -0.95479459E-04
  0.74465176E-04 -0.11628761E-04  0.12374588E-03 -0.31157732E-03 -0.10059855E-03
 -0.66234810E-04  0.28334076E-04 -0.95485225E-04 -0.17249140E-04 -0.27924437E-05
 -0.79598682E-05  0.11053357E-04 -0.15740201E-04 -0.24005249E-04 -0.31417413E-05
 -0.96306473E-05  0.79697450E-05  0.85766472E-05 -0.80363735E-05  0.22112726E-04
  0.12768515E-04 -0.32911655E-04 -0.20388053E-05 -0.50192105E-05  0.83116872E-05
  0.75089001E-05  0.42127675E-05 -0.10078843E-04 -0.38855682E-05 -0.81051628E-05
  0.24482835E-04 -0.22326096E-06  0.15335480E-05  0.34666216E-05  0.13106274E-04
 -0.12795700E-06  0.11385718E-04 -0.94128981E-05 -0.98371885E-05  0.15314822E-04
  0.57133950E-05  0.84059883E-05 -0.84225007E-06 -0.23418123E-05 -0.46061065E-04
 -0.38191449E-04 -0.31568481E-04  0.89021160E-05  0.42243739E-04  0.11905517E-05
  0.12541970E-04  0.17690636E-07 -0.24628218E-04  0.94150454E-04 -0.44996282E-03
 -0.83673356E-04 -0.54868785E-04  0.65986526E-03 -0.19312431E-02  0.22448206E-03
  0.55604726E-03 -0.34158309E-03  0.82265093E-05 -0.32501206E-05  0.42828872E-06
  0.47672769E-05 -0.21399001E-05  0.88113052E-05 -0.30039232E-06 -0.27087269E-06
  0.62914612E-05  0.20724242E-03  0.32917173E-03  0.19816363E-03  0.20218607E-03
  0.20602909E-04  0.52486706E-04 -0.39184000E-04  0.14145151E-03 -0.14083783E-03

  0.36692243E-05  0.77269773E-06 -0.16717948E-04 -0.62070455E-05  0.23479015E-04
 -0.18936722E-04 -0.23704969E-05  0.84144649E-05  0.26564940E-05 -0.13322615E-04
 -0.19463249E-06  0.72706529E-06  0.27940227E-04  0.29640089E-04 -0.54256820E-04
  0.86448175E-05  0.11684333E-05  0.72027769E-05 -0.42510870E-03  0.90273143E-04
 -0.88523306E-04  0.47268085E-03  0.29259434E-03 -0.40775169E-03  0.16317906E-03
 -0.39156576E-03 -0.30979654E-03 -0.27705193E-04 -0.19277160E-04 -0.21533578E-04
  0.30345655E-04 -0.17342028E-04 -0.31533119E-04 -0.59266640E-04  0.43631992E-04
  0.48776629E-04  0.85304278E-03  0.12140897E-02  0.35048724E-02 -0.93543301E-04
 -0.51055160E-03  0.16384321E-05 -0.20837063E-03 -0.14063372E-03 -0.52792549E-03
  0.17887991E-04  0.51948286E-05  0.17784612E-04 -0.69252205E-05 -0.72237170E-05
  0.28820939E-04 -0.21097888E-05 -0.14268852E-04 -0.52508215E-05  0.33026838E-05
 -0.82162521E-05  0.15394432E-04  0.24301489E-05 -0.41181001E-05 -0.49185499E-05
 -0.51580582E-05  0.13793245E-05  0.21786878E-05 -0.72139409E-05  0.10552870E-04
  0.21365112E-05 -0.63211487E-05 -0.13803060E-05 -0.72586748E-05 -0.66140263E-05
 -0.20086190E-04 -0.14210440E-04 -0.57607300E-05 -0.79168281E-05 -0.32026535E-05
  0.74579952E-05  0.19241454E-04 -0.15873120E-04  0.47876755E-06 -0.33596774E-05
 -0.41558561E-05  0.25327288E-04  0.30455330E-05  0.44218937E-05 -0.27364157E-05
 -0.21380642E-04  0.76110576E-05 -0.18372185E-04 -0.11865327E-04 -0.18827016E-04
 -0.11398706E-03  0.20598219E-03 -0.88090431E-04  0.48539881E-04  0.22139116E-03
 -0.35761034E-03 -0.90968746E-05  0.13218350E-03  0.15993967E-03 -0.12390774E-05
  0.13103412E-04 -0.15091307E-04  0.56875814E-05  0.79566785E-05 -0.18358135E-04
  0.61956602E-05  0.15039272E-04  0.16704376E-04  0.15509556E-03  0.16284453E-03
 -0.35817768E-03  0.32017649E-03 -0.16009365E-04 -0.36419246E-03  0.11070474E-03
 -0.10321662E-03  0.82784716E-04 -0.10681409E-05  0.13653728E-07 -0.41829008E-04
 -0.11387386E-04  0.33699746E-05  0.16720278E-04 -0.47970820E-05 -0.26955946E-04
 -0.25514221E-04 -0.11322052E-03  0.15766908E-03 -0.32117161E-03 -0.14659778E-03
 -0.16815624E-03  0.24692105E-03  0.42066698E-03  0.17958007E-04 -0.26664189E-03
 -0.70588843E-05 -0.23253048E-04 -0.14087223E-04  0.20836544E-05  0.74139386E-05
 -0.60313450E-05 -0.17276554E-04  0.17794107E-04 -0.86860600E-05 -0.31184045E-04
 -0.73240994E-04 -0.84667174E-04 -0.76438744E-04  0.15048377E-05  0.83538373E-04
  0.11680736E-03  0.82036325E-04  0.14600703E-03 -0.28858715E-06  0.13619961E-04
  0.10794977E-04  0.73173740E-05 -0.65878280E-05 -0.45250144E-04  0.47646188E-05
 -0.97882265E-05  0.14570407E-04  0.21694524E-05  0.16335898E-04  0.82787028E-06
 -0.39075884E-05 -0.98841235E-05  0.24794809E-04  0.47455396E-05  0.43328596E-05
  0.30270543E-05  0.39946393E-05 -0.87961578E-05 -0.15549993E-05 -0.64461755E-05
  0.64574879E-05 -0.17117766E-04 -0.26788959E-05  0.38237439E-06 -0.13925512E-04
 -0.64747654E-05  0.21722045E-04 -0.45058379E-06 -0.66834139E-05 -0.16210214E-05
  0.21394887E-05  0.97524347E-05  0.16790761E-05  0.12031273E-04 -0.55852025E-04
 -0.26972680E-04 -0.35695954E-04  0.12488095E-04  0.13443893E-04  0.47773244E-04
 -0.91311661E-05  0.18135939E-04 -0.47516174E-04 -0.93663186E-04 -0.33488634E-03
  0.17993117E-03  0.16286715E-03  0.53127127E-03 -0.13852008E-02 -0.22891537E-03
  0.92323853E-04  0.23239732E-03  0.33179669E-06 -0.68964500E-05 -0.45442574E-05
 -0.78923605E-05 -0.11581355E-04  0.20849042E-04 -0.12519471E-04  0.41623802E-05
  0.13664361E-04 -0.56290490E-04  0.16609491E-03 -0.27206656E-03 -0.18645686E-03
 -0.80826763E-04  0.42029893E-03 -0.21559890E-03  0.11006723E-03  0.64631875E-05

 -0.27677053E-04 -0.18739123E-04 -0.15024499E-04 -0.34501296E-04  0.22678286E-04
  0.49556918E-05 -0.10037145E-04 -0.26852931E-04 -0.49391847E-05 -0.18172914E-04
  0.41531273E-04 -0.40406498E-05  0.27238849E-04 -0.20609191E-04  0.72701550E-05
  0.14360828E-04 -0.77848620E-05 -0.28973354E-05  0.19614643E-03 -0.75570440E-04
 -0.95889618E-05  0.11731804E-02 -0.39942864E-04 -0.16744020E-03 -0.33558609E-04
  0.13233737E-03  0.20172301E-03  0.63206032E-04  0.27621705E-04 -0.27108032E-04
  0.54772463E-04 -0.48634988E-05 -0.74601743E-05  0.49193155E-04 -0.60119491E-04
 -0.18862925E-04  0.21844546E-03  0.37806594E-03 -0.93543301E-04  0.43748662E-02
 -0.19686042E-02 -0.83460677E-03  0.68781092E-03  0.12452704E-02  0.34995338E-03
 -0.34574863E-05  0.21916956E-04  0.37837541E-05 -0.33158309E-04  0.91552420E-05
  0.13549418E-04 -0.12301070E-05 -0.19479847E-04 -0.70101104E-05  0.42117765E-05
  0.14612763E-04  0.90021576E-05  0.75360345E-05  0.72832256E-05 -0.43452976E-06
  0.12175844E-04 -0.10214333E-05  0.39489079E-05  0.15403483E-04  0.95349909E-05
  0.10612715E-04  0.65801010E-05  0.41276420E-04 -0.71002494E-05  0.60640132E-05
 -0.84078962E-05  0.43452389E-05 -0.69677635E-05 -0.16783825E-04  0.21525400E-04
 -0.22420938E-05  0.80959797E-05  0.36873763E-05  0.30391573E-05  0.94308256E-05
 -0.45850617E-06 -0.31328664E-05 -0.72982121E-05  0.86646921E-05  0.27530711E-04
 -0.32265372E-05  0.10164564E-04  0.62026336E-05 -0.10437904E-04  0.66240052E-05
 -0.15624206E-03  0.18722213E-03  0.95252417E-04  0.28629488E-03 -0.14729427E-03
 -0.11404953E-04 -0.17192506E-03  0.51888694E-04  0.42852271E-04 -0.57977208E-07
 -0.28675891E-04 -0.89969199E-06 -0.14696800E-04  0.74066734E-05  0.13694128E-05
 -0.30206808E-05  0.95368946E-05  0.88181547E-05  0.78345725E-04 -0.12521184E-03
 -0.23088623E-04  0.26945270E-03  0.12994756E-03 -0.18090475E-03  0.64739431E-04
 -0.18646595E-03 -0.17138898E-03  0.21212703E-04  0.80789900E-05  0.11211146E-04
  0.44541825E-05  0.11806743E-06  0.30248196E-05 -0.12584676E-04  0.87373840E-05
  0.17179120E-04  0.10371025E-03  0.52349860E-04  0.11016426E-03 -0.42597868E-03
  0.18097531E-03  0.86096190E-04 -0.11841814E-03  0.28867617E-04  0.11778235E-03
  0.22706191E-04  0.98922451E-05 -0.16804995E-04 -0.15837769E-04  0.14859277E-05
  0.77960497E-05  0.16749357E-04  0.16386417E-04 -0.16220116E-04 -0.10775901E-03
  0.11146146E-03  0.12851350E-04 -0.91650312E-04  0.21799338E-03  0.56835071E-05
 -0.10370283E-03  0.13575455E-03 -0.14843285E-03  0.20086353E-07  0.28017056E-05
  0.39974402E-05  0.14269779E-04 -0.26166070E-04  0.13352460E-04  0.12588659E-04
 -0.14549135E-05  0.54690430E-05  0.10452749E-05  0.88205490E-05 -0.49224957E-05
 -0.14562752E-04  0.41743115E-05  0.95268691E-05 -0.78592023E-05  0.14634790E-04
  0.77505823E-05  0.35219673E-05 -0.79865016E-05  0.86109214E-05 -0.24531335E-05
  0.12679032E-04  0.62353365E-05 -0.27712391E-05 -0.71814578E-05  0.71630927E-08
 -0.62919476E-05  0.74103978E-05 -0.24142549E-05  0.19395544E-04  0.16859221E-04
  0.88391826E-05  0.13039948E-04  0.21046978E-04 -0.20064062E-05  0.10995409E-04
  0.10438452E-05 -0.15596839E-04 -0.92879717E-05  0.11300607E-05  0.21679295E-04
  0.23989084E-05  0.38594127E-05  0.52871254E-05 -0.14803941E-03  0.13208848E-03
 -0.26482482E-03 -0.77303036E-03  0.17141490E-03  0.77883468E-03  0.19376111E-03
  0.10978204E-03  0.75569516E-04  0.20649957E-04  0.37875928E-05  0.22091088E-04
  0.17909175E-04  0.85163496E-05  0.16010898E-04  0.47918764E-05  0.87590726E-05
  0.11639227E-04 -0.88401226E-04  0.27359888E-04 -0.16557100E-03  0.16875315E-03
 -0.23526503E-04 -0.39015839E-04 -0.84221385E-04  0.16999189E-04 -0.17385142E-03

  0.71071103E-04  0.77696618E-04  0.66717111E-05  0.34937238E-04 -0.89387004E-05
  0.18171689E-04  0.71803510E-04 -0.37810860E-05 -0.49140416E-05  0.31515737E-04
 -0.95081488E-04  0.41328381E-05 -0.41865877E-04  0.94120079E-04  0.23587606E-04
 -0.38259744E-04 -0.15056671E-04 -0.16947920E-05 -0.70567984E-04  0.17506705E-02
  0.43055357E-04 -0.33281117E-04 -0.19542836E-02 -0.47510638E-04 -0.71561016E-03
 -0.22856576E-03  0.35286272E-03  0.16035212E-04  0.23960702E-04 -0.93923688E-05
 -0.70077010E-05  0.61524620E-04 -0.47057294E-04  0.28327400E-04  0.80731221E-05
 -0.61983550E-04 -0.15245532E-03 -0.82444489E-04 -0.51055160E-03 -0.19686042E-02
  0.11778638E-01 -0.82756429E-03  0.19548399E-02  0.33161607E-03  0.36845397E-02
 -0.16510090E-04 -0.21999971E-04 -0.19525032E-04  0.37591613E-04 -0.95834988E-04
  0.38785014E-04 -0.26174210E-04  0.22694187E-04  0.15148658E-04  0.42442259E-06
 -0.16029523E-04 -0.35636192E-04  0.98444014E-05  0.34024636E-04 -0.38421130E-04
 -0.27953665E-04 -0.11644559E-04 -0.23890824E-04 -0.20779482E-04  0.10073183E-04
 -0.71477310E-05  0.42107749E-04 -0.47169944E-04 -0.12465530E-04  0.23190316E-04
  0.25602926E-05 -0.49377573E-06  0.21279106E-05  0.49439640E-04 -0.63722734E-05
  0.83973402E-05  0.14356704E-05  0.22121016E-04  0.79364498E-05 -0.33836649E-05
 -0.15878777E-04  0.35103395E-04 -0.36275077E-04  0.76700896E-05  0.28182968E-05
 -0.43876783E-04  0.24778902E-04 -0.32375161E-04  0.25164764E-04 -0.83653189E-05
  0.16317444E-03 -0.13767855E-03  0.18754656E-03 -0.26015731E-03  0.33288650E-03
  0.28839108E-03  0.52109937E-04  0.14453884E-03  0.60099915E-04 -0.20275251E-04
 -0.25296561E-05  0.24631651E-04 -0.63457719E-05  0.58979422E-05  0.63143512E-05
 -0.10400788E-04 -0.47642962E-06  0.12616566E-05 -0.61280688E-04  0.17896713E-03
  0.33490735E-03  0.48063115E-03 -0.36496321E-03  0.57326672E-03  0.12697337E-03
 -0.11636215E-03  0.24287319E-04 -0.23364969E-04 -0.54121191E-04 -0.12333845E-04
  0.60074021E-05  0.16523205E-04 -0.12350330E-04  0.20866955E-04  0.33383765E-04
  0.12827123E-04 -0.30694429E-03 -0.10762274E-02  0.15573585E-03  0.12595851E-03
  0.68577333E-03 -0.72770742E-03 -0.18858927E-03  0.24519142E-03  0.42856228E-03
 -0.40953773E-04 -0.66875885E-05  0.31748634E-04 -0.26115849E-04  0.13714268E-05
  0.53452526E-04  0.20048822E-04 -0.24046611E-04 -0.50132604E-05 -0.14895897E-03
 -0.67441280E-03 -0.18713316E-04  0.25755648E-03 -0.53569096E-03 -0.28485488E-03
 -0.12955291E-04  0.65400430E-04  0.17561236E-03 -0.82599730E-05 -0.14831254E-04
 -0.15372828E-04 -0.13677797E-04  0.54521257E-04  0.12472769E-05  0.11109428E-04
  0.86540594E-06 -0.13213961E-05  0.42655390E-05  0.79846304E-05 -0.11903313E-04
  0.15258690E-04  0.98528334E-05 -0.37118272E-05  0.86394231E-05  0.24764401E-05
  0.11878237E-04  0.34565690E-06 -0.10795142E-04  0.49681446E-05  0.12927876E-04
  0.41140479E-04  0.52330864E-05  0.49045762E-05  0.93141050E-05 -0.47667268E-06
 -0.28537867E-04  0.13094033E-04  0.57738331E-04 -0.27851687E-04 -0.71912669E-05
 -0.89510411E-05 -0.31846579E-04 -0.40799854E-05  0.34010684E-04  0.35690900E-04
 -0.81209043E-04 -0.24386001E-04 -0.15367088E-05  0.48629442E-04 -0.25168195E-04
  0.66086813E-04  0.93862999E-05  0.32926146E-04 -0.26958885E-03 -0.74091531E-04
  0.27457230E-04  0.33148033E-03 -0.34973329E-04  0.67799195E-03 -0.77860373E-03
  0.23355031E-03  0.92891004E-04 -0.75663901E-05 -0.15182195E-05 -0.22588748E-04
 -0.28519864E-04 -0.21155107E-04  0.11881569E-04 -0.44854317E-05  0.47108484E-05
 -0.30851477E-04 -0.82601770E-04 -0.29215054E-03  0.19437421E-03 -0.40936463E-03
  0.30603158E-03 -0.66789440E-04 -0.76402738E-05 -0.33618990E-04  0.21425840E-03

 -0.25180351E-04 -0.38041585E-05  0.40636683E-04 -0.24352858E-05  0.13246143E-04
 -0.34683983E-04  0.59667969E-05 -0.96887825E-05  0.46835371E-04  0.24535308E-04
  0.15368112E-04  0.54078115E-04 -0.28983425E-04  0.12130459E-04 -0.18853745E-04
  0.97321923E-05  0.11210014E-04 -0.97266761E-05 -0.14341086E-03 -0.20412633E-04
 -0.39919808E-03  0.38714437E-03 -0.25562883E-03 -0.90534379E-04  0.34121646E-03
 -0.71632887E-04 -0.15596214E-03 -0.72377986E-05  0.69652212E-05 -0.18689366E-04
 -0.53511272E-04 -0.31743239E-04  0.10966382E-03 -0.40050401E-04 -0.33831232E-04
  0.10451966E-04  0.11671541E-03  0.10402097E-03  0.16384321E-05 -0.83460677E-03
 -0.82756429E-03  0.74721004E-02  0.63809881E-03  0.22183504E-02  0.25699655E-02
 -0.52616636E-05 -0.94803091E-05 -0.38570660E-05  0.52381358E-05  0.49199058E-05
  0.34777621E-04  0.41935747E-05  0.20780885E-04  0.67469625E-05 -0.58606267E-05
  0.13117764E-04  0.28997070E-04 -0.17351369E-05  0.13337289E-04 -0.43944480E-05
 -0.30463265E-05 -0.12020863E-04 -0.10428562E-04  0.19332697E-04  0.53165682E-05
  0.18255320E-05 -0.61492914E-05  0.35919035E-05  0.19088894E-04 -0.41870172E-05
  0.18898252E-04 -0.63614812E-05  0.21830746E-04 -0.73362960E-05  0.38677026E-04
  0.15781269E-04  0.28115316E-04 -0.53414177E-04 -0.17146938E-05  0.14851580E-04
  0.81850815E-05  0.12376619E-04  0.42402145E-04  0.29433570E-04  0.14886541E-04
  0.23335870E-04 -0.57720558E-04 -0.16410562E-04  0.16575148E-04 -0.30137462E-04
  0.10362603E-03 -0.73835128E-04  0.58119553E-04  0.21372732E-03 -0.19352375E-03
 -0.91936495E-04  0.29478861E-03  0.11395095E-03 -0.62956792E-04 -0.44206052E-04
 -0.23736035E-04 -0.76001153E-05  0.23720741E-04 -0.28222672E-05 -0.17052635E-05
  0.13362040E-04 -0.14052111E-05  0.16571239E-04  0.26202341E-03 -0.14555186E-03
 -0.24983865E-03  0.37015907E-03  0.28196969E-03 -0.11408181E-02  0.28297877E-03
  0.55868023E-03 -0.18842654E-03  0.17420602E-04  0.41762396E-05  0.40959082E-04
 -0.26139859E-05 -0.28084817E-06  0.60292604E-05  0.22274005E-04 -0.44372099E-04
  0.96847140E-05  0.16854780E-03  0.16536917E-03  0.54061394E-03 -0.33632000E-03
 -0.55715509E-06  0.78482366E-03 -0.25885913E-04 -0.29464422E-03  0.18195146E-03
 -0.13143665E-04  0.18194910E-04 -0.73174306E-04  0.24334183E-04  0.80120768E-05
 -0.12995859E-04 -0.91132869E-05  0.64163806E-06 -0.15833428E-04 -0.49900740E-04
  0.25119769E-03 -0.52319217E-03  0.54148851E-04 -0.11748336E-04 -0.98550530E-04
 -0.13385681E-03 -0.18593457E-03 -0.23935400E-03 -0.16348528E-04  0.60473632E-05
 -0.15702390E-04 -0.50661930E-05 -0.11535122E-05  0.21572657E-04  0.21254746E-05
  0.61436511E-06  0.19609791E-04  0.12251837E-04 -0.29617957E-05  0.31486368E-04
  0.19160821E-05 -0.15606746E-04  0.48454232E-04  0.28820109E-05 -0.25613800E-05
  0.56141157E-05  0.58103745E-05 -0.39249700E-05 -0.15739845E-04  0.12397446E-04
  0.27897496E-05 -0.15847070E-04 -0.10488226E-04  0.18246339E-04  0.54176985E-05
 -0.15279906E-05 -0.16243730E-04 -0.34174231E-04  0.10688340E-04 -0.14178049E-04
  0.37550139E-04  0.14660537E-05  0.31277007E-05 -0.21583192E-04 -0.48434188E-04
  0.26747233E-04  0.28376084E-04 -0.12652580E-04 -0.11915669E-04  0.12724349E-04
 -0.19736466E-04 -0.99657627E-05  0.24412136E-05  0.14766887E-03  0.88201249E-04
  0.51677549E-03  0.15642464E-03 -0.39442968E-03  0.57176821E-03 -0.40259909E-03
 -0.66422700E-04 -0.30751849E-03  0.17851956E-04  0.29038671E-05 -0.53099052E-05
 -0.37777257E-05 -0.59777925E-05  0.12115457E-04  0.94799833E-05 -0.88549262E-05
 -0.19124286E-04 -0.23346957E-03  0.72454351E-04 -0.69907822E-04 -0.34719278E-03
  0.30044942E-04  0.27992123E-03 -0.39734016E-04 -0.43025023E-03 -0.26979323E-03

 -0.42306404E-05 -0.56501903E-05  0.20651411E-04  0.77544529E-05 -0.11215773E-04
 -0.24543965E-04  0.25306255E-04 -0.44851615E-06 -0.10161999E-04 -0.85512826E-05
 -0.34637835E-05  0.29640915E-04 -0.28663333E-04 -0.17867247E-05  0.34410788E-04
  0.14511535E-04 -0.67836842E-05  0.17526223E-04  0.41498401E-03  0.52958326E-03
 -0.45239838E-04  0.33348493E-03 -0.77474045E-03  0.55884077E-04 -0.30853695E-03
  0.23428156E-04  0.33002720E-03  0.13967799E-04 -0.19508536E-04  0.64676804E-04
  0.33061814E-04  0.52879612E-04 -0.83210064E-04  0.17998638E-05 -0.14689905E-04
 -0.69647789E-05 -0.12643454E-04 -0.14604121E-03 -0.20837063E-03  0.68781092E-03
  0.19548399E-02  0.63809881E-03  0.32347457E-02  0.12545804E-02  0.15968984E-02
 -0.20616596E-04  0.68250704E-05 -0.69679926E-05  0.12132767E-04 -0.40564763E-04
  0.19240889E-04 -0.25721162E-04  0.64404119E-05 -0.72689298E-06  0.38626907E-05
  0.44077544E-05 -0.60408509E-05  0.99542980E-05  0.15283943E-04 -0.29612505E-04
 -0.92314226E-05 -0.11712653E-04 -0.13702911E-04 -0.24359277E-05 -0.51619410E-05
 -0.18364629E-05  0.95384905E-05  0.17929796E-04 -0.11774299E-04 -0.73805211E-05
 -0.23848794E-05 -0.39193345E-05 -0.78327302E-05 -0.19866730E-04  0.27141236E-04
  0.77210603E-05  0.10293848E-04  0.71709205E-05 -0.14200916E-04  0.77497642E-06
  0.17894871E-04 -0.50323393E-06 -0.23933047E-04  0.80689286E-05  0.15022659E-04
 -0.22422295E-04  0.14056874E-04 -0.26770579E-05  0.31444477E-05 -0.50780562E-05
  0.74000277E-04 -0.24270736E-04  0.72080673E-04  0.12267379E-03  0.41805522E-04
  0.18653823E-03  0.27240115E-04  0.23169219E-04  0.31895874E-04 -0.20969295E-06
  0.14521608E-04  0.14514055E-04  0.12503519E-04  0.71982659E-05 -0.17044472E-04
 -0.11962821E-04 -0.13600130E-05 -0.89012286E-05  0.72271423E-04  0.18476382E-03
  0.29856331E-03 -0.17875917E-03  0.19725608E-03 -0.77991152E-04  0.11150095E-03
  0.17025060E-05  0.13358261E-03 -0.12883349E-04 -0.28349153E-05  0.17922205E-04
  0.18966460E-04 -0.30650830E-06 -0.83177288E-05  0.20701304E-04  0.50914862E-05
  0.46035674E-05  0.14027878E-03 -0.45764756E-03  0.29813010E-03 -0.56458781E-03
  0.24983404E-03  0.11437911E-03  0.13525660E-03  0.17172066E-03  0.18746504E-03
 -0.33460411E-04  0.15547240E-04 -0.80139252E-05 -0.40943018E-05 -0.24666919E-04
  0.32017864E-05  0.14509644E-04 -0.90572246E-06 -0.17313778E-04  0.68285427E-04
 -0.62632635E-04 -0.11028221E-03  0.14910906E-03 -0.19034904E-03 -0.29063291E-03
 -0.31711290E-03 -0.15835732E-04  0.11274119E-03 -0.44528868E-05 -0.15383097E-04
 -0.25974450E-05 -0.28618128E-04  0.74771753E-05  0.31803823E-04  0.10880711E-04
  0.13661091E-04 -0.67417696E-05  0.13961305E-04 -0.39172851E-05 -0.15042219E-04
  0.36678342E-05  0.23604493E-04  0.57918546E-05  0.10393352E-04  0.30108906E-05
  0.63903859E-06  0.57266521E-06 -0.12947354E-04  0.67241165E-05 -0.28229473E-05
  0.16057746E-04  0.93383081E-05  0.41846777E-05 -0.89875869E-06 -0.81209664E-05
 -0.21159112E-04  0.41148921E-05  0.96318511E-05 -0.17015789E-04  0.11182205E-04
  0.61101721E-05 -0.11494139E-04  0.85972276E-05  0.22053271E-04 -0.22404444E-05
 -0.28791667E-04 -0.50703787E-05 -0.15885561E-04 -0.18214558E-04  0.19416463E-04
  0.11091849E-04  0.23372856E-05  0.18036779E-04 -0.55812854E-04  0.12023759E-03
  0.19013560E-03 -0.21941213E-03 -0.34759242E-03  0.15962579E-02 -0.36138080E-03
 -0.23900091E-03  0.12088859E-03  0.12716765E-05 -0.88489452E-05  0.12362087E-04
 -0.13319607E-04 -0.49513870E-05  0.17484930E-04  0.16368333E-04  0.44449177E-06
  0.56971452E-05  0.62587900E-05  0.25708818E-04 -0.54733503E-03 -0.41201320E-03
  0.99215214E-04 -0.13091677E-04 -0.20172635E-03 -0.47027046E-04 -0.51411481E-04

  0.99897003E-05  0.21309477E-05 -0.18406376E-04 -0.28833262E-04  0.21347967E-04
  0.14449468E-06  0.12245516E-04 -0.17835526E-04  0.24062516E-04 -0.11121648E-04
  0.19029110E-04  0.24938542E-04 -0.15109085E-04 -0.35753410E-04  0.47437799E-04
 -0.15610348E-05 -0.12619634E-04 -0.13686564E-04 -0.13769947E-03 -0.96767726E-04
 -0.16523834E-03  0.67262614E-03 -0.34288356E-03 -0.17774989E-04  0.76611563E-04
  0.32736679E-06  0.22159362E-03  0.22558211E-04  0.78965992E-04 -0.66281443E-04
 -0.32441815E-04  0.54522606E-04  0.26400515E-04  0.22015819E-04 -0.36965451E-04
 -0.78575875E-04  0.32999963E-03  0.32163126E-03 -0.14063372E-03  0.12452704E-02
  0.33161607E-03  0.22183504E-02  0.12545804E-02  0.36082602E-02  0.15071428E-02
 -0.16126848E-04  0.13883469E-04  0.12582638E-04  0.47938940E-06 -0.41919396E-05
  0.30602619E-04  0.55735531E-05  0.51797044E-06 -0.56588459E-05  0.20664032E-04
  0.15750599E-04  0.45685442E-06  0.18140249E-04  0.12115187E-04 -0.14614118E-04
  0.80379729E-05 -0.11721881E-04 -0.12444639E-04  0.96327088E-05  0.59015200E-05
  0.77738316E-05 -0.18819173E-05  0.36215929E-04 -0.76059268E-07 -0.14921677E-05
  0.75019603E-05  0.57582567E-05 -0.15072796E-06 -0.79370298E-05  0.37067054E-04
  0.74713889E-05  0.37482444E-05 -0.40163831E-05 -0.84221381E-05  0.63094739E-05
 -0.53370465E-05 -0.81364146E-05 -0.10057746E-04  0.31269674E-04  0.16406404E-04
 -0.74008084E-05  0.70193030E-05 -0.18250963E-04  0.91960839E-05 -0.19117968E-04
  0.46507114E-04  0.23389736E-03  0.18119281E-03  0.12053126E-03 -0.12565145E-03
  0.23844081E-03  0.75975788E-04  0.18455532E-03  0.13284334E-03 -0.21058904E-05
 -0.22167619E-04 -0.36295016E-04  0.47584799E-05  0.42811644E-05 -0.13679673E-06
 -0.15203850E-04  0.45449757E-05  0.22618353E-04  0.15185060E-03 -0.13480366E-03
 -0.15813810E-03  0.48501605E-03  0.25367429E-03 -0.31312277E-03  0.29719478E-04
 -0.19621200E-03 -0.12605856E-03  0.93979227E-05  0.60316628E-05  0.18431809E-04
  0.97749923E-05  0.28591278E-05 -0.24418791E-04  0.82439206E-05 -0.82893286E-05
  0.27023659E-04  0.21603797E-03 -0.41091860E-04  0.33696588E-03 -0.62547015E-03
  0.21217837E-03  0.20040450E-03  0.14638678E-03  0.14186785E-03  0.13942980E-04
 -0.17381636E-04 -0.78034671E-06 -0.36504332E-04  0.16229503E-05 -0.72259235E-05
  0.13341081E-04  0.31801772E-05 -0.11792884E-04 -0.66088113E-05 -0.14519920E-03
  0.10517421E-03 -0.11063356E-03  0.19636058E-03  0.86822788E-04 -0.12682244E-03
 -0.10890801E-03 -0.14003471E-03 -0.17365994E-03 -0.15398795E-04  0.33986774E-05
 -0.10238417E-04 -0.74926698E-05 -0.24007392E-05  0.20157802E-04  0.16113786E-04
  0.82381071E-07  0.25409540E-04  0.52040943E-05 -0.62141064E-06  0.23619502E-04
  0.12100777E-04 -0.84708076E-05  0.27967670E-05  0.12553404E-05  0.16124470E-04
 -0.22206908E-06  0.66842851E-05 -0.21919685E-05 -0.17097643E-06 -0.13703127E-06
  0.11839723E-04 -0.81763525E-06 -0.76012776E-05  0.16844826E-05 -0.40011212E-05
 -0.79065824E-05  0.51876349E-05 -0.58030683E-05  0.17135507E-04  0.48806350E-05
  0.16100495E-04  0.40047963E-05  0.16883323E-04 -0.76592700E-05 -0.19169933E-04
  0.20176395E-05 -0.21548327E-04 -0.22004416E-04  0.24125643E-04 -0.54499884E-06
  0.22123583E-05  0.14627163E-04  0.17409109E-05 -0.22967620E-03  0.14919690E-03
  0.50237646E-03 -0.43859431E-03  0.72118903E-04 -0.33691180E-03  0.15554632E-03
  0.46037998E-03 -0.61871416E-03  0.19503918E-04  0.17274656E-04  0.18196713E-04
  0.98317304E-05  0.24186080E-05  0.15384590E-04  0.35757850E-05 -0.27971703E-05
 -0.39218976E-05  0.66277785E-04  0.15537476E-03 -0.38333692E-03 -0.53729270E-03
  0.22068067E-03 -0.14400775E-04 -0.19464859E-03  0.31605013E-05 -0.21876162E-03

  0.27796941E-04  0.22935319E-04  0.56762965E-05  0.24331867E-04 -0.10223053E-04
  0.17220904E-04  0.28431144E-04 -0.29256427E-04 -0.58595971E-05  0.19943026E-04
 -0.13211321E-04  0.18465524E-05 -0.25710283E-04  0.35442657E-04  0.36596764E-05
 -0.17972195E-04 -0.84427279E-05  0.29994191E-04  0.35937860E-03  0.71828493E-03
 -0.15365680E-03  0.46459627E-03 -0.83003162E-03  0.85027796E-04 -0.17568015E-03
 -0.21774336E-03  0.36487089E-03  0.92703562E-04  0.27024976E-04 -0.64201033E-04
 -0.15134282E-04 -0.25187165E-04  0.65988685E-04  0.29076308E-04 -0.93847387E-04
 -0.41866968E-04  0.40210614E-04  0.36695100E-03 -0.52792549E-03  0.34995338E-03
  0.36845397E-02  0.25699655E-02  0.15968984E-02  0.15071428E-02  0.57765344E-02
 -0.20401039E-04  0.19242136E-04 -0.11635794E-04  0.24264168E-04 -0.37060439E-04
  0.32941068E-04 -0.12072101E-04  0.11177043E-04 -0.11298809E-04 -0.10042352E-04
 -0.26567549E-05 -0.50717673E-06  0.89313971E-05  0.67740883E-06 -0.46558956E-05
 -0.16829450E-04 -0.15660677E-04 -0.17590774E-04  0.17869779E-05  0.21999907E-04
 -0.84864243E-05  0.23840350E-04  0.19778450E-04 -0.12733240E-04  0.71094993E-05
  0.15479362E-04  0.10199616E-04  0.31057533E-05 -0.29146695E-06  0.22804580E-04
  0.12883894E-04  0.57164466E-05 -0.23146608E-04  0.22525862E-04  0.11259145E-04
 -0.83256022E-05  0.27746738E-04 -0.22384212E-04 -0.43483071E-05  0.10588403E-04
 -0.99638913E-05  0.16955354E-04 -0.19858738E-04  0.15542340E-04  0.42836017E-04
  0.15894825E-03  0.15792135E-03  0.44456365E-04  0.15714106E-03 -0.11586303E-04
  0.70324693E-05 -0.14780777E-04  0.15868044E-03 -0.63343782E-04 -0.29765300E-04
 -0.78047514E-05  0.21610186E-04  0.17241647E-04  0.34585211E-05 -0.25184714E-04
 -0.30954502E-05  0.15963517E-04  0.92375021E-05  0.22061518E-03  0.64655658E-04
  0.18181555E-03  0.50337251E-03 -0.11794768E-03 -0.41736364E-04  0.33595041E-03
 -0.83230733E-04 -0.27980855E-04  0.14605766E-04 -0.37374779E-04  0.38118310E-04
 -0.49306903E-05  0.93661408E-05  0.32983474E-04 -0.49784402E-05  0.16047306E-04
  0.22255133E-04 -0.11547668E-04 -0.47874000E-03  0.27706338E-03 -0.20639774E-03
  0.11110188E-02 -0.24766068E-03 -0.44314346E-03 -0.61540606E-04  0.44508998E-03
 -0.50305316E-05 -0.29035199E-04 -0.36316293E-04 -0.32991142E-05 -0.15403804E-04
  0.25985110E-04  0.52462587E-05 -0.16314217E-04 -0.49002332E-04 -0.23190534E-03
  0.59466610E-05  0.29886845E-04  0.65703501E-04  0.18176975E-03 -0.85242701E-04
 -0.18931655E-04 -0.75456195E-04 -0.31042191E-03 -0.15819411E-04 -0.45787579E-05
  0.18073193E-04  0.69635137E-05  0.12796828E-04  0.23219125E-04 -0.57948506E-06
 -0.66564565E-05  0.99096901E-05 -0.87977926E-05  0.22427651E-04  0.19058336E-06
 -0.20907777E-05  0.25131195E-04  0.25554111E-04 -0.91991134E-06  0.14746116E-04
  0.27987758E-04  0.11224989E-04 -0.11741509E-04  0.25191656E-05  0.15915969E-04
  0.15129535E-04  0.10544016E-05  0.21123813E-05  0.14019012E-04  0.18306474E-04
 -0.12941655E-04  0.80104955E-05  0.14605192E-04 -0.15054491E-04  0.52615440E-04
  0.18191570E-04 -0.11418670E-05 -0.46774911E-05 -0.12679910E-04 -0.16237467E-04
 -0.55512822E-05  0.36546058E-05 -0.58546342E-05  0.30497257E-04 -0.64155334E-05
  0.20121261E-04  0.83077908E-05  0.57210348E-04  0.14437782E-03  0.56971942E-04
  0.35528044E-04 -0.40151952E-04 -0.28782638E-03  0.18851090E-02 -0.55119609E-03
  0.13050654E-03  0.41209077E-03  0.10843918E-04  0.43687815E-05  0.42254482E-05
 -0.21194506E-04  0.15056584E-04  0.37378112E-04  0.25179123E-04 -0.86093263E-05
  0.14203505E-04 -0.39684317E-03 -0.17026788E-03  0.10606730E-03  0.19037908E-03
 -0.11692665E-03 -0.61646730E-04 -0.48480496E-04  0.33838307E-05 -0.22114164E-03

 -0.93164960E-07 -0.24159929E-05  0.35204983E-06 -0.12096498E-05  0.17880644E-05
 -0.11580217E-06 -0.78665650E-06 -0.10116724E-05 -0.50490560E-06 -0.22607720E-05
  0.11345643E-05 -0.24614353E-05  0.59004393E-06  0.96893490E-06 -0.11149454E-05
 -0.89930449E-06 -0.13748820E-05 -0.26455062E-05 -0.11762281E-04 -0.20796179E-04
  0.39270006E-05  0.30883581E-04  0.43778729E-04 -0.43790560E-04  0.63259341E-05
  0.89914695E-05 -0.32298478E-05 -0.39841973E-06  0.32943656E-05 -0.14257902E-05
  0.14945664E-06 -0.24884194E-05 -0.29333176E-06 -0.43330370E-06  0.13426280E-05
  0.17684920E-05 -0.84674772E-05 -0.19239991E-04  0.17887991E-04 -0.34574863E-05
 -0.16510090E-04 -0.52616636E-05 -0.20616596E-04 -0.16126848E-04 -0.20401039E-04
  0.25052866E-04  0.20908599E-05  0.33375012E-05  0.44303155E-06  0.78711156E-06
 -0.19782765E-05  0.10205433E-05 -0.19270656E-06 -0.15254315E-06  0.73656502E-06
  0.15952774E-05  0.11265196E-05 -0.25429344E-06 -0.35260397E-06  0.42062324E-06
 -0.13003907E-05 -0.11753851E-06  0.29027295E-06  0.72079821E-06 -0.87050253E-06
 -0.25074357E-07 -0.32582356E-06 -0.10538549E-05  0.11878706E-05  0.12574982E-05
 -0.80012695E-06 -0.24438691E-07 -0.20406266E-05  0.11185023E-05 -0.17436997E-05
  0.10716908E-05  0.95426445E-07 -0.13462340E-05 -0.35608799E-06 -0.38579135E-06
 -0.62288388E-06  0.21960389E-05 -0.53047596E-06 -0.87743450E-06 -0.11745408E-05
  0.65749473E-06 -0.15491837E-06 -0.62917127E-06 -0.96106477E-06 -0.17073253E-05
  0.18107293E-05  0.16253611E-04 -0.90887785E-05 -0.12232902E-04  0.31558153E-04
 -0.33246252E-04  0.19413731E-05  0.14893958E-04  0.27600053E-05 -0.54968009E-06
 -0.41122165E-06 -0.12702556E-05 -0.40479848E-06 -0.39596319E-06 -0.12004357E-05
  0.14771054E-06 -0.10788172E-05 -0.10365884E-06 -0.55883535E-06  0.10234869E-04
 -0.77940726E-06  0.29243395E-04 -0.42090325E-05 -0.17557064E-04  0.92698044E-05
  0.55379795E-05  0.99202969E-06  0.18606832E-06 -0.26535552E-05  0.33296626E-06
 -0.10858320E-05  0.13485740E-05  0.20549559E-05 -0.51940441E-06 -0.92192859E-06
 -0.28690752E-06 -0.26300313E-04  0.12332482E-05  0.23895198E-04  0.32690956E-04
 -0.21761307E-04  0.18383127E-04 -0.11307548E-04 -0.31472096E-05 -0.27881463E-06
 -0.66461981E-06 -0.18521947E-05 -0.10394171E-06 -0.16530452E-05  0.10962349E-05
 -0.98094935E-06  0.21797192E-05 -0.74718860E-06 -0.53589053E-07  0.83097403E-05
  0.10872697E-05  0.36607530E-05 -0.11557446E-04  0.16390392E-04  0.74419296E-05
  0.42034593E-05  0.94984031E-05  0.93661648E-05  0.13022859E-05  0.12856991E-05
  0.44491754E-06 -0.98473108E-06 -0.47709739E-06 -0.31322145E-07 -0.18471269E-07
  0.18005578E-05  0.50338306E-06 -0.15185049E-05  0.92714745E-06 -0.17474869E-05
 -0.11085002E-05 -0.10332318E-06  0.86084048E-06 -0.64667002E-06 -0.15989125E-06
  0.53854018E-06 -0.16424948E-06 -0.76545128E-06  0.10714266E-05  0.14738885E-05
 -0.10776285E-05 -0.12828672E-05 -0.10649165E-05  0.31952313E-06 -0.97796477E-06
 -0.88161583E-06 -0.11002581E-05 -0.82703420E-06 -0.96172480E-06 -0.19839136E-05
  0.21684840E-05 -0.10836109E-05  0.12929767E-05 -0.60524867E-06  0.33636568E-05
  0.26191795E-05 -0.11801632E-05 -0.34587565E-06  0.23110161E-06  0.18621471E-05
 -0.28817723E-05  0.19157755E-06 -0.35678964E-06 -0.51035309E-05  0.31633214E-04
  0.31636666E-04  0.67155913E-06  0.10311259E-04  0.48557854E-04 -0.28308246E-05
 -0.15720840E-04  0.22246052E-04 -0.72441843E-06 -0.69736321E-06  0.25374394E-06
  0.81539243E-06  0.10475379E-05 -0.16431022E-05 -0.56321379E-06  0.52149684E-06
 -0.46234470E-07 -0.20788786E-04 -0.12910203E-04 -0.21063939E-04 -0.68859262E-05
 -0.64533572E-05 -0.91754754E-05 -0.53252132E-05 -0.87713660E-05  0.16140847E-04

  0.49244612E-06 -0.58694376E-06  0.18901381E-05  0.55364088E-06  0.16569778E-06
 -0.53972312E-06  0.19678127E-05  0.11488941E-05 -0.84649857E-06 -0.35170129E-05
  0.69306321E-05 -0.95799549E-06 -0.11727184E-05  0.38494654E-05 -0.36358303E-05
  0.53828053E-06 -0.25433608E-05 -0.27914448E-07  0.77128780E-04  0.40835600E-04
  0.25035671E-04  0.32750598E-04  0.63446668E-04 -0.23569089E-04 -0.68510461E-04
 -0.24176977E-04 -0.28776828E-04  0.42677282E-05  0.34885202E-05 -0.11145492E-05
  0.12663742E-05 -0.10850471E-04  0.50308408E-05 -0.65330237E-05 -0.56809483E-06
 -0.53074689E-06  0.19919622E-04  0.14877729E-04  0.51948286E-05  0.21916956E-04
 -0.21999971E-04 -0.94803091E-05  0.68250704E-05  0.13883469E-04  0.19242136E-04
  0.20908599E-05  0.43884848E-04  0.37245171E-06 -0.62749221E-06  0.34302810E-06
 -0.62063038E-06  0.66360872E-06  0.96062887E-06 -0.15511153E-05 -0.45174660E-06
  0.37285072E-06  0.29516933E-05  0.30436935E-06  0.87192897E-06  0.93768867E-06
  0.53391168E-06  0.86426614E-06  0.31693770E-05 -0.19443462E-05 -0.17759872E-05
  0.32472351E-06  0.14474478E-05  0.57814345E-05 -0.12152623E-05 -0.89708800E-06
 -0.43521096E-07  0.11364452E-07  0.64898033E-06  0.10772219E-05  0.14388217E-05
  0.17995909E-06 -0.81556609E-06  0.52053107E-06  0.69787898E-06 -0.16597972E-05
  0.76567987E-06  0.27937439E-06 -0.19617627E-05 -0.21177375E-05 -0.89916276E-06
  0.66912605E-06  0.36156547E-06 -0.78476504E-07 -0.59755895E-06  0.10347982E-05
 -0.25960238E-05  0.26513941E-04 -0.16899952E-05 -0.18309194E-04  0.33050512E-04
 -0.14050639E-05 -0.94092235E-05 -0.37623572E-05  0.16702879E-04  0.65484996E-09
  0.23058215E-05  0.39808647E-06  0.13634728E-05  0.41981128E-05 -0.19723817E-06
 -0.52912055E-06  0.17772947E-05 -0.60701698E-06  0.31379252E-04  0.39984393E-04
 -0.17044613E-04  0.64896925E-05 -0.30824315E-04  0.80542077E-04  0.80736034E-05
 -0.32486839E-04 -0.18697166E-04 -0.12595778E-05  0.18085845E-05 -0.10822129E-05
  0.68135029E-06  0.10565768E-05  0.77403957E-06 -0.15695387E-05 -0.76166772E-06
  0.63482172E-06  0.23254573E-04 -0.58719216E-04  0.90016283E-05 -0.35330226E-04
  0.43625692E-04  0.13149430E-04  0.21489332E-04 -0.74779466E-05 -0.12369147E-04
  0.28626655E-06 -0.27329237E-06  0.13094078E-06  0.93680684E-07  0.35464144E-05
 -0.11826752E-05  0.76805062E-06 -0.12867458E-05 -0.33014003E-05  0.11912841E-04
  0.32985477E-05  0.16224470E-05 -0.36297384E-05  0.86713579E-05 -0.10561974E-04
  0.53229384E-05  0.98078954E-05  0.50468931E-04  0.12429246E-05  0.31315988E-05
  0.12549203E-06  0.35409663E-06 -0.18831184E-05  0.54628853E-06 -0.14091566E-05
  0.10988012E-05 -0.57864780E-06 -0.59795777E-06 -0.33727184E-05 -0.64228536E-06
  0.21759119E-07 -0.11908039E-05  0.11104785E-05 -0.19821747E-05  0.67969567E-06
 -0.35967407E-06 -0.76748662E-07  0.29817300E-06  0.10802246E-05 -0.21146762E-08
 -0.63176837E-06 -0.77354005E-07 -0.85723581E-06  0.23685488E-06 -0.40960847E-06
 -0.10313968E-05  0.69075578E-06 -0.14227622E-05 -0.10038719E-05  0.32166540E-05
 -0.13015509E-05  0.20203202E-05 -0.37988067E-06  0.10106022E-05 -0.87231696E-06
  0.22816254E-05 -0.31396017E-05 -0.16548243E-05 -0.33631320E-05  0.29771677E-05
 -0.23360694E-05 -0.10670191E-05  0.93429974E-06  0.87219611E-05 -0.13609513E-04
 -0.96390172E-05  0.40309845E-05 -0.26571611E-05  0.29823279E-04 -0.95352828E-05
 -0.55426550E-04  0.84381446E-05 -0.24644458E-05  0.14470591E-05 -0.15188577E-05
 -0.73228445E-06 -0.13900469E-05  0.16110555E-05  0.31528836E-05 -0.12220734E-05
  0.12523394E-05  0.25887528E-04 -0.35032118E-04 -0.28597477E-04 -0.42567765E-04
  0.15930816E-04  0.80612619E-06 -0.20488680E-04  0.18981653E-04 -0.21929593E-04

  0.16441178E-05 -0.11479376E-05 -0.29202636E-05 -0.12306150E-05  0.24897065E-05
 -0.35679941E-05 -0.74254532E-06 -0.54878392E-06  0.37945135E-06 -0.74745213E-06
 -0.11195413E-05 -0.63234097E-06  0.77192132E-06 -0.76212015E-06 -0.31158751E-05
 -0.18123344E-05  0.28673443E-06 -0.10320708E-05 -0.30067520E-04 -0.31503103E-04
  0.24762477E-04  0.43014831E-04  0.37246135E-04 -0.46947906E-04  0.24668646E-04
 -0.28169019E-04 -0.47290128E-06 -0.84409990E-06  0.25340435E-05 -0.13064401E-05
 -0.67210798E-07  0.22169182E-05 -0.21882247E-05  0.60898187E-06 -0.21519828E-05
  0.23134283E-05  0.15266871E-04  0.88589212E-05  0.17784612E-04  0.37837541E-05
 -0.19525032E-04 -0.38570660E-05 -0.69679926E-05  0.12582638E-04 -0.11635794E-04
  0.33375012E-05  0.37245171E-06  0.35742180E-04 -0.79982810E-07  0.50882231E-06
 -0.27525661E-06  0.12636609E-06 -0.14682638E-05  0.12001680E-05  0.90939753E-06
  0.45001717E-05  0.14266836E-05 -0.18098751E-05  0.10880975E-05  0.36259109E-05
  0.17457575E-06  0.38131476E-06  0.26617481E-05  0.27238302E-06  0.49569809E-06
 -0.16980652E-05 -0.16664098E-05  0.46177247E-06  0.76831726E-06  0.27117196E-06
  0.15879139E-05  0.22014420E-06 -0.22761731E-05 -0.19412504E-06 -0.15973896E-05
 -0.15308811E-05  0.24441977E-05 -0.38238647E-06 -0.58066142E-06 -0.11536969E-05
 -0.95691156E-06  0.81742429E-07 -0.63781573E-07  0.33000308E-05  0.24921595E-06
  0.21836622E-05 -0.18149932E-05 -0.50536344E-06 -0.38288373E-06 -0.14864779E-05
 -0.65062207E-05  0.70973724E-06  0.83909704E-05  0.11565725E-04 -0.15109469E-04
  0.67084780E-05  0.84641516E-05 -0.15682577E-04  0.26521876E-05 -0.48561605E-07
 -0.82293438E-06 -0.24244138E-06 -0.99658285E-06 -0.80796380E-06 -0.19164098E-06
 -0.18875986E-05 -0.85084731E-06  0.84997852E-06 -0.53236234E-05 -0.13518408E-05
 -0.24988893E-04  0.99449614E-05  0.14308664E-04 -0.44466116E-06 -0.68435363E-05
 -0.78604937E-05  0.32309825E-04  0.81279051E-06 -0.46975873E-06 -0.17180262E-05
  0.44938643E-06 -0.28874232E-05 -0.15062241E-06 -0.10167302E-05  0.37912515E-05
  0.17079965E-05  0.19903376E-04  0.23726446E-04 -0.24475445E-04 -0.27229850E-04
 -0.26657553E-04  0.16118936E-04  0.12561932E-04  0.33238458E-04  0.69394558E-05
  0.93020938E-06 -0.16860498E-05  0.12561613E-05 -0.11619640E-05 -0.12489742E-05
  0.30089810E-06  0.46337543E-06 -0.16635152E-05  0.16893230E-05 -0.77212090E-05
 -0.11326150E-04 -0.14344978E-05  0.37439988E-05 -0.38589901E-05  0.17268651E-04
  0.44602464E-05  0.28751289E-05 -0.46194136E-05 -0.33733537E-06 -0.10760973E-06
  0.29505129E-05  0.95606771E-06 -0.30254301E-05  0.33267604E-05  0.82333115E-06
  0.10520424E-06  0.31385841E-06 -0.11040309E-05  0.12698184E-05 -0.90874436E-06
  0.64983863E-06 -0.14473947E-05 -0.12690690E-05  0.83833169E-06 -0.12970810E-06
 -0.58800222E-06  0.12278564E-05  0.81296274E-06 -0.60095011E-06 -0.54271003E-07
  0.62802625E-06 -0.11821337E-05 -0.17159581E-06 -0.60517104E-06 -0.21243259E-05
 -0.11385763E-05 -0.19514036E-05 -0.98679374E-06  0.56079599E-06 -0.17335684E-05
  0.24157973E-05 -0.62387397E-07  0.23234886E-05 -0.16143595E-05 -0.29559794E-05
 -0.12786344E-05  0.26960519E-05  0.12193668E-05 -0.17920255E-05  0.24847943E-05
 -0.18861748E-05  0.30463225E-05 -0.22103758E-05  0.32075305E-05 -0.14343776E-05
  0.69611355E-05 -0.34060357E-04  0.85647969E-05  0.62486744E-04  0.46274166E-05
  0.36044602E-05  0.39509811E-04  0.10670933E-05 -0.14525170E-06 -0.56343233E-06
  0.86320524E-06 -0.68459274E-06 -0.34065583E-07  0.28603869E-06 -0.88375010E-06
 -0.12325628E-05 -0.77018828E-05  0.16961263E-04 -0.27617489E-04 -0.23907519E-04
  0.24989050E-04 -0.34740151E-04  0.13657100E-04 -0.29715461E-04  0.42241948E-06

  0.15335727E-05  0.18579280E-05 -0.59052283E-06  0.30069447E-05  0.61420427E-06
  0.17890114E-05  0.21519446E-06  0.84859663E-06  0.37708909E-06 -0.61263297E-07
 -0.28744105E-06  0.23574854E-05  0.21231913E-05 -0.16998836E-05 -0.93986497E-06
  0.40542680E-06 -0.19749241E-06 -0.67831076E-06 -0.16980218E-04  0.16850808E-04
 -0.10642420E-06 -0.10096341E-03 -0.88636961E-05  0.34849492E-04 -0.21039471E-04
 -0.22234589E-04 -0.49744629E-05 -0.31344921E-06 -0.10819673E-05 -0.24935573E-05
 -0.61186083E-05  0.24242336E-05  0.38952803E-05  0.45633663E-05 -0.16076842E-05
  0.15062089E-05 -0.16556550E-04  0.23420009E-04 -0.69252205E-05 -0.33158309E-04
  0.37591613E-04  0.52381358E-05  0.12132767E-04  0.47938940E-06  0.24264168E-04
  0.44303155E-06 -0.62749221E-06 -0.79982810E-07  0.40797600E-04 -0.17429542E-04
 -0.12666197E-04 -0.40437363E-06  0.35528843E-05 -0.17032855E-05  0.28604224E-05
  0.19014732E-05  0.29361329E-05 -0.27635346E-05  0.12784109E-05  0.27794677E-05
 -0.16181651E-05  0.14369154E-05  0.35255822E-05 -0.40592570E-06 -0.11495815E-06
  0.40994157E-06  0.29539001E-05 -0.49740648E-06  0.15933700E-05 -0.11988308E-05
  0.99450563E-06  0.98115628E-07 -0.16884211E-05  0.12500842E-05  0.18094178E-05
 -0.39000570E-05  0.29366652E-05  0.84508164E-06 -0.33386586E-06 -0.11913504E-05
 -0.67101683E-06  0.13064804E-06 -0.26322945E-05 -0.17529343E-05  0.25191914E-05
 -0.20218550E-05  0.12730762E-05  0.13202973E-06 -0.14209185E-05 -0.10279406E-05
  0.19545517E-04 -0.66307846E-06 -0.12809063E-04 -0.45535708E-05  0.21582104E-05
 -0.46452661E-05  0.71187967E-05  0.58818689E-05  0.74618220E-05  0.12095580E-05
  0.92025887E-08 -0.15620417E-05 -0.92266560E-06  0.81528295E-06  0.18127879E-05
  0.14775417E-05  0.94899771E-06  0.59825325E-06 -0.24878628E-04  0.26424564E-05
 -0.15728034E-04  0.56308498E-04  0.70901273E-05 -0.13243404E-04  0.99328002E-05
  0.19356583E-04  0.61611665E-05 -0.27669773E-05 -0.10787188E-05 -0.99518403E-06
 -0.37952613E-05  0.23810579E-05 -0.42299701E-06  0.15537482E-06 -0.53659344E-06
  0.79607950E-06  0.98882048E-06 -0.32911815E-04  0.53463441E-05  0.25575548E-04
 -0.16137533E-04  0.10625418E-04 -0.29683576E-04  0.68166895E-05  0.11007529E-04
 -0.82132584E-06 -0.17201884E-05  0.98448637E-06  0.36171884E-06  0.63867669E-07
 -0.17396844E-05  0.80017038E-06 -0.13113613E-05  0.10016373E-05  0.40193484E-05
  0.85488109E-06 -0.53014778E-05  0.10260900E-04 -0.28210721E-05 -0.94818226E-05
  0.10261084E-04 -0.91146874E-05  0.16201820E-04 -0.97716648E-06  0.71973250E-07
 -0.18422455E-05 -0.43441209E-05  0.30610322E-05  0.13430960E-05 -0.35379200E-06
  0.15975523E-05  0.79333117E-06  0.17298968E-05  0.10340848E-05  0.66563444E-06
 -0.22923075E-05  0.91739045E-06  0.16790830E-05  0.18794768E-05 -0.97816197E-06
 -0.44007157E-06  0.34083246E-06  0.47813444E-07 -0.77532040E-07  0.31251716E-06
  0.68993224E-06  0.51602318E-06  0.41618941E-06  0.84044360E-06  0.20865462E-07
 -0.21587610E-06  0.84719745E-06  0.22499006E-06 -0.84582129E-06  0.12671407E-05
 -0.20304861E-06 -0.16804097E-05 -0.20267097E-05 -0.10236902E-05 -0.10341118E-05
  0.19106065E-05 -0.27599868E-05  0.13793100E-06  0.29453113E-05 -0.15659690E-05
  0.54233672E-06 -0.19100781E-06  0.86306083E-06  0.14970423E-05  0.22228265E-04
  0.27505700E-04  0.27437197E-04  0.28226563E-06 -0.54017621E-04  0.14763257E-04
  0.24969341E-04 -0.20896273E-04 -0.20290944E-05 -0.57887751E-07 -0.95139687E-06
 -0.28524651E-05  0.34171734E-05 -0.37176126E-06  0.18514413E-06 -0.16504136E-05
  0.49524416E-06  0.18330905E-04 -0.60946465E-05  0.77238264E-05 -0.31328070E-04
  0.13108669E-04 -0.90974709E-05 -0.65549994E-06 -0.14965556E-04 -0.47402010E-05

 -0.23747001E-06  0.26288241E-05 -0.32593197E-06 -0.28463909E-06 -0.13770754E-04
  0.39315969E-05 -0.32071211E-05 -0.16680144E-06  0.61604296E-06  0.85648188E-06
  0.76843185E-05 -0.11509318E-05 -0.19423134E-05  0.44400581E-05 -0.14491981E-05
  0.21651742E-05 -0.77653423E-06  0.16108037E-05  0.94341734E-05  0.11924266E-04
  0.13967897E-04  0.25776059E-04  0.55688131E-04 -0.39454920E-05  0.32155939E-04
 -0.13670351E-04 -0.45280519E-04  0.35843814E-05  0.51574976E-05 -0.10120853E-05
  0.28956118E-05 -0.68369648E-05  0.53544633E-05 -0.54190125E-05  0.65420363E-06
 -0.73622535E-06  0.23676136E-04 -0.14219232E-05 -0.72237170E-05  0.91552420E-05
 -0.95834988E-04  0.49199058E-05 -0.40564763E-04 -0.41919396E-05 -0.37060439E-04
  0.78711156E-06  0.34302810E-06  0.50882231E-06 -0.17429542E-04  0.72398635E-04
 -0.17243799E-04  0.63464982E-05 -0.94998183E-07  0.26725581E-05 -0.22977702E-05
  0.61908340E-05 -0.96386860E-06  0.51136995E-06  0.12414699E-05 -0.11049199E-05
  0.80766398E-06  0.13638413E-05  0.16372615E-05 -0.65368011E-06 -0.64029655E-05
  0.45431355E-06  0.69802549E-06 -0.82474043E-05  0.25379178E-05 -0.56827160E-06
 -0.36317801E-06  0.11117610E-05  0.29807660E-05  0.63655301E-06 -0.16691325E-05
  0.13476257E-05 -0.71167460E-05  0.17495002E-05  0.20479961E-05 -0.59278717E-06
  0.11608832E-05 -0.37914490E-06 -0.25862971E-05  0.27319905E-05 -0.20342207E-05
  0.40419688E-05 -0.92996636E-06  0.23043879E-05 -0.97171371E-06 -0.12200098E-05
  0.85971368E-06 -0.54735348E-05  0.60497466E-05  0.67172812E-07  0.63601513E-04
 -0.76633059E-05  0.15975554E-05 -0.12857067E-04  0.88496067E-06 -0.86023633E-06
  0.91182186E-06 -0.29737316E-05 -0.28686332E-06 -0.81771666E-05  0.39960489E-05
 -0.27793764E-05  0.53362932E-07  0.18167197E-05 -0.61220759E-05 -0.49496240E-04
  0.39054788E-05  0.26292545E-04 -0.31192083E-04  0.15383454E-04 -0.24834645E-04
  0.79371850E-05  0.44346597E-05  0.11968356E-05 -0.79702254E-07  0.15600449E-05
 -0.18269503E-05  0.33249208E-05  0.10205559E-05 -0.20265968E-05  0.24079795E-06
  0.21969549E-06 -0.13293954E-04  0.21599862E-04 -0.12843675E-04 -0.21835930E-05
  0.53590098E-04 -0.37293298E-04 -0.37690816E-04  0.69717838E-06 -0.70616419E-05
 -0.21641278E-06 -0.10825349E-05  0.18628501E-05  0.18573865E-05 -0.45728182E-05
  0.23450380E-07  0.55077199E-06  0.30890120E-06 -0.15964446E-05  0.18460788E-05
  0.15088194E-04  0.19136639E-05  0.80341431E-05 -0.30234201E-04 -0.75391251E-05
  0.16859928E-04  0.87719206E-05 -0.13329772E-04  0.39394741E-07 -0.81095291E-06
  0.18967332E-05  0.36416937E-05 -0.65283793E-05 -0.12641019E-05  0.16225040E-05
 -0.13838811E-05 -0.23688989E-05 -0.12035548E-06 -0.85004889E-06 -0.41018850E-06
  0.23378235E-05 -0.79060375E-05  0.19312260E-05 -0.29282259E-05  0.75698856E-06
  0.14807462E-05  0.29992110E-06  0.19242612E-05  0.15798051E-05  0.68795820E-06
  0.13141948E-06  0.43354638E-06  0.11579013E-06 -0.84951619E-07  0.82773902E-06
  0.13347624E-05 -0.39478519E-05  0.15716560E-06  0.13299605E-05 -0.59660745E-05
  0.42458450E-05 -0.13115896E-05 -0.50077502E-06 -0.22961710E-05  0.30153306E-05
  0.31568601E-05 -0.24311515E-06  0.37961289E-05 -0.68491821E-05  0.26585051E-05
  0.13105070E-05  0.13238579E-05 -0.26149892E-05 -0.34710904E-04 -0.48017755E-04
  0.13114533E-04 -0.16249492E-04 -0.39032555E-05 -0.41501120E-06  0.33863376E-04
  0.43395790E-05 -0.20624882E-04 -0.12834466E-05 -0.28478264E-06 -0.14551737E-05
  0.25047029E-05 -0.36509923E-05 -0.31423985E-06 -0.29974447E-05  0.34668647E-06
  0.77756833E-06  0.22189482E-04 -0.13238620E-04  0.32040670E-04  0.79877533E-04
 -0.24438614E-04  0.23479004E-05  0.24553926E-04 -0.14936008E-04 -0.36630622E-04

 -0.10440996E-05  0.12987378E-05  0.95737266E-06  0.10179703E-05  0.37955089E-05
 -0.31507903E-05 -0.28082346E-07  0.43005587E-06 -0.13598638E-05 -0.20654549E-05
 -0.37850955E-05 -0.27897950E-05 -0.86143988E-06  0.85058582E-07  0.18931947E-05
 -0.11681564E-05  0.36021150E-06 -0.26619118E-06 -0.16327900E-04  0.26353468E-05
  0.57370872E-05  0.11739929E-04 -0.82646800E-05 -0.79730907E-04 -0.19830803E-04
  0.84950790E-05  0.12737840E-05  0.10121846E-06 -0.22816171E-05 -0.19465392E-05
  0.29145467E-05  0.36009019E-05 -0.41760215E-05  0.28421319E-05  0.59884035E-06
  0.56086391E-06  0.18761712E-05  0.21840387E-04  0.28820939E-04  0.13549418E-04
  0.38785014E-04  0.34777621E-04  0.19240889E-04  0.30602619E-04  0.32941068E-04
 -0.19782765E-05 -0.62063038E-06 -0.27525661E-06 -0.12666197E-04 -0.17243799E-04
  0.55878535E-04 -0.15688373E-05  0.27171566E-05  0.28156566E-05  0.15791687E-05
 -0.39548305E-05  0.38180396E-06  0.37060415E-05 -0.32399506E-05 -0.11556886E-05
  0.99356091E-06 -0.13814063E-05 -0.58147793E-05  0.94026315E-07  0.12051741E-05
 -0.18970046E-05  0.17353909E-05  0.33998178E-05 -0.30001303E-05  0.20521670E-06
  0.37363955E-06 -0.16701713E-05 -0.73701936E-06 -0.61639470E-06  0.20274580E-05
 -0.49555366E-07  0.24318720E-05 -0.23908341E-05 -0.55668698E-06 -0.93722965E-06
  0.39141748E-06  0.16241495E-05  0.34380335E-05 -0.97519826E-06  0.12560606E-05
  0.19226417E-06 -0.36731553E-05 -0.68266992E-07  0.58558226E-06 -0.24416457E-05
 -0.11964402E-04 -0.12780741E-04  0.66449166E-06  0.12991230E-04  0.33163329E-05
 -0.44065792E-04 -0.46283650E-05  0.89114872E-05 -0.12985721E-04 -0.11293305E-05
 -0.13265163E-05  0.16630796E-05 -0.16249261E-06  0.32916895E-05 -0.17380614E-05
 -0.19906609E-06 -0.10441431E-05 -0.84893440E-06  0.41105099E-05  0.16308226E-04
 -0.34547525E-04 -0.92284355E-05  0.32958753E-05  0.22778786E-04  0.14065578E-04
 -0.33568436E-05  0.56223788E-06  0.18712601E-05 -0.21130718E-05  0.27963245E-06
  0.20396053E-05 -0.13666439E-05 -0.10752675E-05  0.12066969E-05  0.13790163E-05
  0.18493528E-06  0.55655867E-05  0.11962675E-04  0.50673299E-04  0.10517323E-04
 -0.98499693E-05  0.36386076E-04  0.29846128E-08 -0.56939604E-05 -0.21234433E-04
  0.76702850E-06 -0.13555441E-05 -0.17619023E-05 -0.25627211E-05  0.27794273E-05
  0.40907140E-05 -0.79536057E-06  0.20224319E-06 -0.31020995E-05 -0.13320852E-04
  0.89414438E-06  0.10863976E-04 -0.66932610E-05  0.13379175E-04  0.85680094E-05
  0.40211998E-05  0.89057098E-05 -0.73264476E-05 -0.21066801E-05  0.93655293E-06
 -0.15969913E-05  0.13677982E-05 -0.36816797E-06 -0.17408518E-05 -0.14275973E-05
  0.54599786E-06  0.17577711E-05  0.15696611E-06  0.72633034E-06  0.12189662E-05
  0.26167763E-05  0.21382172E-05 -0.62003764E-05 -0.26017414E-06 -0.14698268E-05
  0.18467557E-07  0.43872377E-07  0.73070971E-06 -0.12343703E-06  0.27494585E-06
  0.12544619E-05 -0.27065674E-05 -0.86275929E-07 -0.15726442E-06  0.92598504E-06
 -0.89513071E-06  0.26467406E-05  0.50835196E-06 -0.91749877E-06  0.45452422E-05
 -0.12469154E-05 -0.29382434E-06  0.24192123E-05  0.39557004E-05 -0.35281099E-05
 -0.19853892E-05  0.90149325E-06 -0.26375262E-05  0.45912030E-05 -0.21197757E-05
 -0.11177043E-05 -0.77028567E-06 -0.19877617E-05  0.12915205E-04 -0.42587106E-05
  0.14012982E-04  0.21486237E-05  0.22238016E-04 -0.80879299E-04 -0.25619646E-04
  0.36920694E-05 -0.22048288E-04  0.42906196E-07 -0.70449001E-06 -0.20741498E-05
 -0.15104486E-06  0.11473089E-05  0.65682531E-06  0.78444779E-06 -0.10778021E-05
 -0.12350744E-05  0.16201239E-04  0.23203596E-04 -0.51147549E-05  0.69234947E-05
  0.63367530E-05 -0.53547876E-05 -0.12142238E-04  0.79882731E-06 -0.14043175E-04

  0.50645743E-06 -0.19721235E-05 -0.77810872E-06  0.55294163E-06 -0.18312275E-05
  0.30681480E-06 -0.18436743E-05  0.52591582E-06 -0.23856473E-06  0.14783549E-07
  0.35083574E-05  0.16031947E-06 -0.56835477E-06  0.78063921E-06 -0.11330558E-05
  0.14393649E-05  0.35109476E-07 -0.78166986E-06 -0.88262319E-05  0.14153074E-04
  0.16684591E-04  0.12617928E-04  0.40771077E-04 -0.12527090E-04  0.45291399E-04
 -0.68469076E-05 -0.18685925E-04  0.94759009E-07  0.47308134E-05 -0.92002534E-06
  0.30803343E-05 -0.65720824E-05  0.33811283E-05 -0.13907380E-05  0.24709330E-06
 -0.14104977E-05 -0.42975596E-05  0.69667367E-06 -0.21097888E-05 -0.12301070E-05
 -0.26174210E-04  0.41935747E-05 -0.25721162E-04  0.55735531E-05 -0.12072101E-04
  0.10205433E-05  0.66360872E-06  0.12636609E-06 -0.40437363E-06  0.63464982E-05
 -0.15688373E-05  0.22353173E-04  0.44044066E-06  0.22649562E-05 -0.29639525E-06
  0.27891979E-05  0.41850853E-06 -0.10931779E-06  0.12375446E-05  0.21793431E-06
 -0.74091487E-06  0.11931160E-05  0.10169065E-05 -0.44448446E-06 -0.36014201E-06
  0.59397334E-06  0.71884265E-06 -0.18044950E-05  0.67422526E-06 -0.29224195E-06
  0.73593552E-06  0.24361068E-06  0.11103188E-05  0.68478444E-07 -0.22899414E-06
 -0.47392558E-06 -0.49313710E-06  0.95884375E-06 -0.43421832E-06 -0.69199833E-06
 -0.30264341E-06 -0.81021427E-06 -0.43092020E-06 -0.13913203E-05 -0.10684514E-05
 -0.26444696E-05  0.91769316E-06 -0.24547818E-06 -0.83221080E-06  0.13445675E-05
  0.75993098E-05 -0.57901838E-05 -0.51648267E-06 -0.40522605E-05  0.27466728E-04
 -0.42459326E-05 -0.59214260E-05 -0.53864439E-05  0.14790565E-04 -0.34463368E-06
  0.57509061E-06  0.95906141E-07 -0.18801379E-05  0.20947011E-05  0.47385519E-06
 -0.10097868E-05  0.44152392E-06 -0.40689751E-06  0.18650562E-05 -0.98337218E-05
 -0.61244708E-05 -0.12967403E-04  0.26926355E-04 -0.68719032E-05  0.20109030E-05
  0.24699000E-04  0.84206376E-05  0.38826576E-06  0.19933507E-05 -0.13360644E-05
 -0.16112532E-05  0.53260512E-06  0.20505069E-06 -0.10170551E-05 -0.29369024E-06
 -0.56890688E-06  0.13550149E-05  0.25558143E-04 -0.67008467E-05 -0.17536358E-05
 -0.24000743E-04  0.50644746E-05  0.27991414E-05 -0.74437124E-06 -0.10494945E-04
 -0.45315545E-06 -0.85811566E-06  0.11544602E-05  0.12695747E-05 -0.10533492E-05
 -0.55027906E-06 -0.10024614E-05  0.34696668E-06  0.41931393E-06  0.34809978E-05
  0.10741874E-04  0.59569864E-05  0.27430831E-05 -0.16273730E-05  0.16502030E-05
 -0.45299818E-05  0.66562384E-06 -0.99349913E-05  0.64225798E-06 -0.84884392E-06
  0.62953752E-06  0.17526620E-06  0.29373883E-05 -0.20956679E-05 -0.16634376E-05
 -0.21075243E-06 -0.11028148E-05  0.18746446E-06 -0.19289338E-05  0.90218345E-07
  0.81730687E-06 -0.68361887E-06  0.48340305E-06 -0.15091097E-05 -0.39206301E-06
  0.10491464E-05 -0.47154987E-06  0.86138368E-07 -0.45300910E-06 -0.46519800E-06
  0.16544262E-06  0.60895628E-06  0.12518454E-07  0.52265544E-07  0.88660668E-06
  0.47191119E-06  0.14120397E-06  0.16905779E-06  0.10163691E-05 -0.13406681E-05
 -0.75229622E-06 -0.50811639E-07 -0.70353841E-06 -0.49989802E-06  0.21619417E-05
  0.80142457E-06  0.14703474E-05  0.19672175E-05  0.20176802E-05 -0.11543678E-05
  0.10638111E-06 -0.46585458E-07 -0.94642595E-06 -0.10080439E-04  0.40157767E-05
  0.24325831E-04 -0.27176979E-04  0.16027816E-04 -0.13946962E-04  0.84400376E-05
  0.42173993E-05  0.45263475E-05  0.42312344E-06 -0.84840009E-06 -0.57991297E-06
  0.88725617E-07 -0.19419124E-05  0.57445156E-06 -0.95376548E-06  0.24733079E-06
  0.95841169E-06  0.97205494E-05  0.13242152E-04  0.67065012E-06 -0.81435441E-05
 -0.20256604E-06  0.37616865E-05  0.18378603E-06 -0.42164916E-05 -0.61736669E-05

  0.18498425E-06  0.19834596E-05 -0.56030019E-07  0.94519817E-06 -0.47428911E-06
  0.13619806E-05  0.32431123E-06  0.12430837E-05 -0.16893167E-05  0.70955191E-06
  0.92174427E-06 -0.25027491E-05 -0.56212140E-06  0.10635450E-05 -0.11965308E-05
  0.41863629E-06 -0.68824188E-06 -0.12017016E-05  0.68329758E-05  0.17061609E-04
 -0.13657771E-04 -0.27508119E-04 -0.36728310E-05 -0.45554061E-05 -0.21965736E-04
 -0.46461482E-04 -0.17765399E-04 -0.25792134E-05  0.60511499E-06  0.87566428E-06
 -0.11779603E-05 -0.12801183E-06  0.24370029E-05  0.11599055E-05  0.52710126E-06
  0.37150327E-05 -0.77100526E-06 -0.18886259E-04 -0.14268852E-04 -0.19479847E-04
  0.22694187E-04  0.20780885E-04  0.64404119E-05  0.51797044E-06  0.11177043E-04
 -0.19270656E-06  0.96062887E-06 -0.14682638E-05  0.35528843E-05 -0.94998183E-07
  0.27171566E-05  0.44044066E-06  0.22050312E-04  0.13493330E-05  0.24272472E-05
 -0.81337013E-06  0.25009635E-05  0.15606295E-05 -0.48062717E-07 -0.26202800E-06
  0.21634946E-05  0.12008856E-05  0.86193653E-06  0.10293900E-07 -0.95838371E-06
 -0.19118935E-06  0.14678161E-05 -0.12207119E-05  0.23769924E-06 -0.84242367E-07
  0.13465275E-06 -0.39747883E-06  0.19235379E-05  0.65625332E-06 -0.33637042E-06
 -0.15097905E-05  0.13629970E-06 -0.15731832E-05 -0.11957163E-05 -0.23504717E-05
  0.40107910E-06 -0.47249020E-06 -0.19666621E-05  0.87265459E-06 -0.14373594E-05
 -0.34731385E-06  0.65425838E-06 -0.28027780E-05  0.61607673E-07 -0.39508273E-06
  0.10366178E-04 -0.21405967E-05  0.71596691E-05 -0.82544838E-06 -0.10576966E-04
 -0.32459171E-05  0.59336193E-05 -0.17314100E-05  0.38560827E-05 -0.57740059E-06
  0.16584829E-05 -0.61467356E-06  0.88810575E-06  0.22535371E-07  0.22417955E-06
 -0.32409522E-07 -0.75337078E-06 -0.82621722E-06 -0.18495234E-04  0.10614180E-04
 -0.97640056E-06 -0.95200191E-06 -0.99634196E-06  0.14877790E-04  0.47090616E-05
  0.18541805E-04  0.11652309E-04 -0.55216296E-06 -0.54115216E-06  0.20612185E-05
 -0.33047932E-06  0.29776425E-07  0.74970775E-06  0.26714991E-06 -0.19703436E-05
  0.16372956E-05  0.57273929E-05 -0.38893534E-05  0.32837990E-04  0.74420330E-05
  0.78929679E-05 -0.22097663E-04 -0.93190581E-05  0.18706162E-04 -0.23859490E-04
  0.37201560E-06 -0.89300218E-06  0.16745715E-06 -0.23525789E-06 -0.13679932E-05
  0.48174682E-06 -0.64066457E-06 -0.14964617E-05 -0.21935085E-05 -0.67051151E-05
 -0.52037186E-05 -0.18436964E-05 -0.83903915E-05  0.62498541E-05  0.10839344E-06
  0.93965102E-05  0.11050842E-05  0.20712844E-04 -0.95935318E-06  0.40888378E-06
 -0.19032369E-05  0.14003373E-05 -0.67227765E-06  0.49664839E-06 -0.91180670E-08
 -0.23384949E-05 -0.85288062E-06  0.48789539E-06  0.84492242E-06  0.14526611E-05
 -0.78434395E-06  0.52355968E-06 -0.16047159E-05  0.82829302E-06 -0.13289706E-05
 -0.66697350E-06  0.12386646E-06  0.92782770E-06  0.29434934E-06  0.27973966E-06
 -0.41981662E-06 -0.29840036E-07  0.88599504E-07 -0.67527152E-06 -0.30111475E-07
 -0.93657102E-07  0.10450413E-05 -0.93091315E-06 -0.12608741E-05 -0.13136369E-06
  0.16888147E-05 -0.41434618E-06 -0.10367778E-05 -0.20238414E-05 -0.21993056E-05
  0.23103482E-05 -0.38031316E-05 -0.15844557E-05  0.17083032E-05 -0.73848992E-06
 -0.15239220E-05 -0.15417809E-05  0.48206042E-06  0.20542318E-04 -0.61551449E-05
 -0.61469081E-05  0.26688335E-04  0.28032088E-05 -0.16054715E-04 -0.10758427E-04
 -0.25868612E-04 -0.22816358E-04 -0.20332235E-05 -0.40626296E-06 -0.16409520E-05
 -0.10994120E-05  0.14148615E-05 -0.22260161E-05  0.80271763E-06 -0.15580952E-05
  0.24173653E-06  0.28649419E-05 -0.10298123E-04  0.26800093E-04  0.35880675E-05
  0.23709998E-05 -0.14314479E-04 -0.36668382E-05 -0.12360148E-04 -0.58700773E-05

  0.78850900E-06  0.46129318E-06  0.13046770E-05  0.12232422E-05  0.29423667E-06
 -0.28088489E-05 -0.12136370E-05 -0.16881170E-05 -0.11576014E-05 -0.14568272E-06
  0.46391474E-06 -0.14775529E-05 -0.18624476E-06 -0.25020838E-05  0.92326241E-06
  0.38939381E-06 -0.37234406E-06  0.23175142E-05 -0.38545338E-05  0.14279255E-04
  0.14933458E-04  0.24159492E-04  0.13309243E-04 -0.39215875E-04  0.44026845E-05
 -0.23741862E-04  0.31838331E-05 -0.64223968E-06  0.63846859E-06 -0.24932255E-05
  0.23333959E-06  0.10579022E-05 -0.11022745E-05 -0.75792465E-06  0.27245693E-05
  0.32194267E-05 -0.50774499E-05 -0.17238565E-04 -0.52508215E-05 -0.70101104E-05
  0.15148658E-04  0.67469625E-05 -0.72689298E-06 -0.56588459E-05 -0.11298809E-04
 -0.15254315E-06 -0.15511153E-05  0.12001680E-05 -0.17032855E-05  0.26725581E-05
  0.28156566E-05  0.22649562E-05  0.13493330E-05  0.31342362E-04  0.41964246E-06
 -0.11028468E-05 -0.40423647E-05  0.23981828E-05  0.30752338E-05 -0.69994410E-05
 -0.64855347E-07  0.36218879E-06 -0.42951543E-05  0.46872859E-06 -0.11020784E-06
  0.19918763E-06  0.13655357E-06  0.71470597E-06 -0.18464435E-05  0.55837317E-06
 -0.93705421E-07 -0.90069746E-06 -0.22419406E-06  0.28146477E-05 -0.17511726E-05
 -0.77103108E-06  0.16146690E-05  0.99508777E-06 -0.36788188E-06  0.11760765E-05
 -0.33260965E-05 -0.83084793E-06  0.14261844E-05  0.10922696E-05 -0.56851241E-06
 -0.98197642E-06 -0.12372077E-05  0.80188295E-06 -0.79570498E-06 -0.76839922E-06
  0.21149979E-05 -0.31658009E-04  0.90816352E-05  0.25232677E-05 -0.15529218E-04
 -0.35228517E-05  0.79702165E-05 -0.23859031E-05  0.13266482E-05  0.10686017E-05
  0.58618958E-07  0.69697172E-06 -0.99787273E-07 -0.13074337E-05  0.11969377E-05
 -0.11008128E-05 -0.44830929E-06 -0.24147394E-05 -0.10114689E-04  0.13362363E-04
  0.15845157E-04 -0.16024986E-04  0.31871788E-04  0.11276790E-04 -0.88129563E-05
  0.73057209E-05  0.30901590E-05  0.45936076E-06  0.23625116E-06 -0.27321481E-06
  0.35677274E-06 -0.40409823E-06 -0.20354745E-05 -0.45940619E-06 -0.73935762E-06
 -0.49537381E-06 -0.52499234E-05  0.17118739E-04 -0.58224034E-05 -0.20472875E-05
 -0.18441080E-05  0.17084207E-04 -0.15083063E-04  0.18783644E-05 -0.99036379E-05
  0.12110598E-05 -0.13617203E-05  0.71743050E-06  0.78510804E-07 -0.44634934E-06
 -0.13705829E-06  0.83362590E-06 -0.69004468E-06  0.18587622E-05  0.45845285E-05
  0.56880779E-05 -0.43411802E-05  0.51451452E-05 -0.30195464E-04 -0.22010015E-05
 -0.78703292E-05 -0.19916760E-05 -0.12553440E-04 -0.18488195E-07  0.57125531E-06
 -0.32045897E-06  0.37277341E-06 -0.68886326E-06 -0.24413374E-06 -0.17194984E-06
  0.50440776E-07 -0.31826807E-05 -0.34974808E-08 -0.91100216E-06 -0.20098088E-05
  0.96716241E-06 -0.24279785E-05 -0.13030608E-05  0.35770780E-06  0.82958785E-06
 -0.24898646E-05 -0.56249847E-06  0.15442327E-05 -0.37756232E-07 -0.13373291E-05
  0.11207804E-05  0.10863501E-05  0.84432629E-06  0.25771552E-07  0.67464773E-06
  0.87559739E-06  0.55098571E-06  0.14095068E-05 -0.59271856E-06 -0.34304920E-05
  0.32735179E-05 -0.90181457E-06 -0.15949742E-05  0.61974294E-06  0.95046454E-06
  0.12100874E-05  0.37380239E-05  0.95720158E-06 -0.25435683E-05  0.53029479E-06
 -0.16115428E-05  0.20037945E-05  0.21829903E-06  0.55722304E-05  0.15125173E-05
 -0.85923210E-05 -0.25669174E-05 -0.28983830E-04  0.64938765E-04 -0.45016591E-05
 -0.31860115E-04  0.36573873E-04  0.24234726E-06  0.12875547E-05 -0.11786442E-05
 -0.17334857E-06 -0.55365216E-06  0.89069483E-06  0.10154827E-05  0.31774600E-06
 -0.50934319E-06  0.34470978E-06  0.10680736E-04  0.17110681E-04  0.98061800E-05
 -0.16136861E-04  0.44831399E-06  0.11186247E-06 -0.12964827E-04  0.21330676E-04

  0.10181716E-05  0.89712043E-06 -0.11550625E-05  0.69994477E-06  0.18453859E-05
  0.12079988E-05  0.50088502E-06  0.11108634E-05  0.56546892E-06  0.50687586E-06
  0.25684309E-06 -0.28275710E-06  0.12156014E-05 -0.12038532E-05 -0.16522006E-05
  0.19981241E-05 -0.85392194E-06 -0.87884292E-06 -0.14649365E-04 -0.12804658E-04
  0.52316663E-05 -0.25707961E-04 -0.26620445E-04 -0.18118757E-04 -0.23722658E-04
 -0.14003904E-04 -0.77468859E-05 -0.85628823E-07  0.96892201E-06 -0.27930701E-05
  0.82112596E-06  0.60950676E-06 -0.45618470E-06  0.21624984E-05  0.13602266E-05
 -0.48770058E-06  0.19553699E-06  0.15311411E-04  0.33026838E-05  0.42117765E-05
  0.42442259E-06 -0.58606267E-05  0.38626907E-05  0.20664032E-04 -0.10042352E-04
  0.73656502E-06 -0.45174660E-06  0.90939753E-06  0.28604224E-05 -0.22977702E-05
  0.15791687E-05 -0.29639525E-06  0.24272472E-05  0.41964246E-06  0.29337766E-04
  0.36292804E-05  0.43720034E-05 -0.15203923E-05  0.15099538E-05  0.80513847E-06
 -0.41938685E-06 -0.13839892E-05  0.23626532E-06  0.63734698E-06 -0.22928726E-06
 -0.13906731E-05 -0.73040425E-06  0.73897041E-06 -0.21692597E-05  0.66790196E-07
 -0.90044890E-06  0.33729776E-06  0.31926303E-06  0.39837368E-05  0.33093436E-06
 -0.91752120E-06  0.33569718E-05 -0.57031760E-06 -0.65647947E-06 -0.75434737E-06
 -0.12801032E-05 -0.11939401E-05 -0.14128426E-05 -0.43204174E-06  0.21703055E-05
 -0.22939606E-05 -0.64468831E-06 -0.21864071E-06 -0.12266672E-06 -0.15669466E-05
 -0.16098674E-04 -0.24748017E-04 -0.66947737E-07 -0.72317362E-05 -0.63594210E-05
  0.48433513E-05 -0.14622147E-05  0.45748937E-05  0.13439120E-04  0.72315519E-06
 -0.82306327E-07  0.13276285E-05 -0.27681539E-05 -0.80439430E-07  0.14481780E-05
 -0.98685043E-06 -0.14860893E-05 -0.81358763E-06 -0.53295139E-05  0.36309244E-06
 -0.12646091E-04  0.12123022E-04  0.41856374E-04 -0.24987831E-05 -0.31108336E-05
  0.78683919E-05  0.16592578E-04 -0.14533422E-05  0.20673490E-05 -0.15612164E-05
 -0.77781906E-07  0.31489418E-06 -0.19554005E-05 -0.55820430E-06 -0.62297115E-06
  0.19197351E-06 -0.49180050E-06  0.20978570E-04 -0.11398635E-04  0.62695349E-05
 -0.29548278E-04 -0.25492024E-04  0.36527665E-05  0.80035560E-05 -0.89798550E-05
  0.65343173E-06 -0.11200939E-05 -0.37484605E-06 -0.12779725E-05 -0.46265004E-06
  0.99912690E-06 -0.24146882E-06 -0.37813324E-06  0.10804961E-05 -0.91235541E-05
  0.11670471E-04 -0.50477701E-05  0.65703425E-05 -0.30179723E-04  0.21873703E-05
  0.43731668E-05  0.59074540E-05  0.78502931E-05 -0.23757378E-05  0.15377175E-06
 -0.11416493E-05 -0.11090158E-05 -0.43292610E-06  0.35359412E-06 -0.18158967E-06
  0.16074004E-05  0.63190831E-06  0.23879963E-05 -0.10392164E-06  0.49336261E-06
 -0.48556005E-06 -0.36918930E-05 -0.22720792E-06 -0.56733992E-06 -0.10400107E-05
 -0.34581900E-06 -0.53341805E-06  0.88643498E-06 -0.95028121E-06  0.27407684E-06
 -0.11670824E-05 -0.19355085E-06  0.16391131E-06  0.84383542E-06 -0.18967464E-06
  0.30851317E-06  0.32404024E-06 -0.12532392E-05 -0.97084260E-06 -0.29346399E-06
 -0.20308054E-06 -0.11753360E-05  0.61140508E-06 -0.92775896E-06 -0.15661136E-05
  0.45335944E-06 -0.76796614E-06 -0.21584263E-05  0.34303027E-05 -0.18011878E-05
 -0.11862799E-05 -0.87621124E-06 -0.14472196E-05  0.14057573E-04 -0.73897604E-06
  0.27715758E-04  0.18493004E-04  0.27070526E-04 -0.64236878E-04  0.12654699E-04
  0.95913780E-05 -0.12804568E-04  0.30985810E-06  0.99909981E-06 -0.82983498E-06
  0.14549095E-05  0.24184762E-06 -0.10543916E-05 -0.79041575E-06 -0.67090869E-06
  0.13644603E-05  0.18189704E-04 -0.87643723E-05  0.25698385E-04  0.10922715E-03
 -0.10361717E-04 -0.35463762E-04 -0.66377790E-05  0.27030867E-04  0.20993369E-04

 -0.97841014E-06 -0.33305220E-06  0.81180373E-07 -0.75056895E-06  0.25364172E-05
  0.10434372E-05  0.54526816E-06  0.47934833E-06  0.17229706E-05  0.39070980E-06
  0.36090299E-05  0.15388929E-05 -0.25669224E-06  0.12731931E-05  0.94170286E-06
  0.69657680E-07  0.26388248E-06 -0.23249906E-05  0.50354384E-04  0.50197991E-04
  0.31979500E-04 -0.14250154E-04  0.46090214E-04 -0.11395573E-05  0.49883378E-04
  0.18987523E-04  0.23922092E-04  0.12967030E-05 -0.18372247E-05 -0.32055899E-05
  0.15801676E-05 -0.29291194E-05 -0.12415092E-05  0.74739468E-06 -0.50215399E-06
  0.16666830E-05 -0.51502022E-05  0.13919528E-04 -0.82162521E-05  0.14612763E-04
 -0.16029523E-04  0.13117764E-04  0.44077544E-05  0.15750599E-04 -0.26567549E-05
  0.15952774E-05  0.37285072E-06  0.45001717E-05  0.19014732E-05  0.61908340E-05
 -0.39548305E-05  0.27891979E-05 -0.81337013E-06 -0.11028468E-05  0.36292804E-05
  0.44036290E-04  0.11789410E-05 -0.14957726E-05  0.22190007E-05  0.32180361E-05
  0.21587370E-06  0.34874919E-06  0.32805748E-06  0.85916846E-06 -0.18310684E-05
 -0.19970457E-05  0.22868464E-05 -0.87470313E-06 -0.47773324E-06  0.49689046E-06
  0.25586610E-05 -0.10980418E-06  0.28954160E-05  0.15245355E-05  0.10678755E-05
 -0.99169003E-06  0.38159707E-05  0.20700681E-06  0.37605768E-05 -0.17704549E-05
  0.40737342E-06  0.14810317E-05 -0.75127663E-06  0.79245213E-07  0.17319345E-05
 -0.28766280E-05  0.10221015E-05  0.22392040E-05 -0.18288239E-05 -0.12133621E-06
 -0.47438522E-05 -0.19246094E-04 -0.76612562E-06  0.65920975E-05  0.12567974E-04
 -0.74668060E-05 -0.17865756E-04 -0.26982904E-05 -0.16418222E-04 -0.27714925E-06
 -0.19970880E-05 -0.29602195E-05 -0.26051638E-05  0.80997845E-06 -0.24749890E-07
 -0.11388243E-05 -0.70904069E-06  0.12427611E-05 -0.16347117E-04 -0.41709958E-04
 -0.22367376E-04  0.13088792E-04  0.41069961E-04 -0.66947208E-04  0.17747468E-04
  0.11356221E-04 -0.11207360E-04  0.67070519E-06 -0.22464801E-05 -0.11591722E-05
 -0.13127696E-05  0.29762807E-05  0.13783865E-05 -0.20901947E-06  0.56645403E-06
  0.50115986E-06 -0.23697060E-04  0.38085730E-04  0.29442079E-04  0.45867952E-04
 -0.74940765E-04 -0.94367558E-05 -0.31923803E-04 -0.17888401E-05  0.10012294E-04
 -0.14800456E-05 -0.10881712E-05  0.38986560E-07  0.10507410E-05 -0.39024131E-06
  0.77705029E-08 -0.78159892E-06 -0.49292366E-06  0.21518777E-05  0.42573442E-05
  0.27730411E-05 -0.76053139E-07  0.43930740E-06 -0.59902582E-05  0.32668074E-05
 -0.98123035E-05 -0.23216971E-05  0.20026416E-04 -0.54198611E-06 -0.51675696E-06
  0.13273945E-05  0.14478695E-06 -0.20090777E-05  0.82062952E-06 -0.46942342E-06
  0.17148237E-05  0.15800836E-05  0.14234204E-05  0.10994728E-05  0.58905338E-06
  0.15765341E-05 -0.20547988E-05  0.10171360E-05 -0.13986434E-05 -0.46585673E-06
  0.23239625E-05 -0.66893666E-06  0.26695891E-06 -0.51775188E-06  0.35930866E-06
  0.14058568E-05 -0.10454316E-05 -0.17497751E-06  0.49328158E-06 -0.18268669E-05
 -0.93950219E-06  0.48740804E-06 -0.13319409E-05 -0.14653916E-06 -0.96362210E-05
  0.39425971E-05 -0.18909368E-05  0.28517002E-06 -0.12031254E-05  0.31538012E-05
 -0.24853033E-05 -0.12628181E-05  0.15538661E-05 -0.86787922E-06  0.19851380E-05
  0.15656318E-05 -0.32228636E-07 -0.19358820E-05 -0.33527484E-04  0.13176445E-04
  0.47590822E-04 -0.13019265E-05 -0.20613411E-04 -0.94061660E-04  0.13254579E-04
  0.18264450E-04 -0.14128518E-04  0.19470968E-05 -0.41478551E-06  0.21874000E-05
 -0.71818274E-06 -0.14636462E-05  0.14398759E-05 -0.19257598E-05 -0.43312078E-06
  0.39951649E-06 -0.19823438E-04  0.32799890E-05 -0.25317578E-04 -0.40865139E-05
 -0.16860637E-05 -0.33868856E-04  0.11957047E-04 -0.18676024E-04  0.11154563E-04

 -0.86318738E-06 -0.16525498E-05 -0.56383641E-06  0.11796082E-05  0.17986287E-05
  0.23110965E-06  0.14629191E-06  0.20730867E-05  0.55533179E-06 -0.93131201E-08
  0.29268481E-05  0.11581543E-05  0.32426029E-06  0.98306372E-06 -0.41543940E-05
  0.29654264E-06 -0.61206175E-06  0.20338459E-05  0.23655254E-04  0.12536623E-04
  0.15851247E-04  0.39290130E-05 -0.13200197E-04 -0.54876046E-05 -0.33212707E-04
 -0.41643001E-04 -0.18367401E-04 -0.12728838E-05  0.14884474E-06  0.21280868E-05
  0.12604912E-05 -0.19071085E-05  0.50729432E-05 -0.10373662E-05  0.87189716E-06
  0.89917455E-06 -0.18731144E-05  0.19971762E-05  0.15394432E-04  0.90021576E-05
 -0.35636192E-04  0.28997070E-04 -0.60408509E-05  0.45685442E-06 -0.50717673E-06
  0.11265196E-05  0.29516933E-05  0.14266836E-05  0.29361329E-05 -0.96386860E-06
  0.38180396E-06  0.41850853E-06  0.25009635E-05 -0.40423647E-05  0.43720034E-05
  0.11789410E-05  0.38191022E-04  0.79211606E-06  0.98992206E-06 -0.23189432E-05
 -0.12484577E-06  0.20743596E-05  0.25348010E-05 -0.12370245E-05 -0.69097330E-06
  0.27874210E-05 -0.27405961E-05 -0.13360734E-05  0.65317189E-05  0.83335158E-07
 -0.33887549E-05 -0.99963183E-06  0.12344618E-05 -0.17330215E-05  0.24286324E-05
  0.35089614E-07 -0.28129718E-06 -0.40799495E-06 -0.14320398E-05 -0.21993723E-06
 -0.19680842E-06 -0.11117599E-05 -0.56651745E-06 -0.53759333E-05 -0.11013043E-05
  0.10717009E-05  0.22375502E-05 -0.10174984E-05  0.45256895E-06 -0.11062467E-05
  0.43630137E-05 -0.18127110E-04 -0.18116639E-04 -0.54146705E-05 -0.15899857E-05
  0.14139350E-04  0.58787171E-06  0.76964537E-05 -0.13436160E-04  0.77642562E-06
  0.29007400E-06  0.10573520E-05 -0.17667769E-06  0.51523842E-07 -0.76150279E-06
 -0.53039120E-06 -0.59045487E-07 -0.71215531E-07 -0.19640406E-04  0.80759586E-05
  0.72027376E-05  0.43655695E-04 -0.15083670E-04 -0.17053680E-04  0.13114793E-04
  0.50119571E-04  0.48507207E-05 -0.15543663E-06 -0.17581369E-05  0.10537528E-05
 -0.21307020E-05  0.16760409E-06  0.11504231E-05 -0.95360308E-07 -0.73380926E-06
  0.12479474E-05 -0.44016153E-04  0.33634727E-04  0.55258429E-04  0.55905326E-05
  0.32370063E-06 -0.21232727E-05 -0.10880107E-04 -0.19979945E-04 -0.43866413E-05
 -0.41753386E-06 -0.21712421E-06 -0.11005312E-05  0.49579256E-06 -0.10611563E-05
  0.65814637E-07  0.75958548E-06  0.96182577E-06 -0.23695736E-05 -0.35492000E-05
  0.14913536E-04 -0.38295511E-05  0.82306558E-05  0.71028663E-05 -0.15201228E-04
  0.11285203E-04  0.84940414E-05 -0.38623748E-05 -0.10047007E-05 -0.43908228E-06
 -0.23679486E-05  0.47406728E-06 -0.18020450E-06  0.22841146E-05 -0.34868781E-06
  0.67000383E-07  0.17968832E-05 -0.21620509E-06  0.12564062E-05  0.41373043E-05
 -0.12377071E-05  0.15546526E-05 -0.18389509E-07 -0.48245194E-07 -0.89990130E-06
 -0.13144554E-05 -0.79046776E-06 -0.38048304E-06 -0.44126263E-06  0.86193578E-06
  0.14069586E-05  0.19893571E-06 -0.55944888E-06  0.50533020E-06  0.10864548E-05
 -0.10656848E-05 -0.60637478E-06 -0.52506144E-06  0.14261814E-05  0.68328521E-06
 -0.17563729E-05  0.24285504E-06 -0.56676624E-06 -0.19410248E-05 -0.31803346E-06
  0.22917555E-05 -0.54019799E-06 -0.12302480E-05  0.10649363E-05 -0.47862450E-06
 -0.10267095E-05 -0.30000705E-05  0.11302766E-05  0.19434151E-04  0.97277530E-05
  0.12243438E-04  0.22159685E-04  0.34158253E-05  0.12535313E-04 -0.14860396E-05
  0.31563088E-05 -0.17931783E-04 -0.26028617E-06 -0.81274847E-06 -0.76876193E-06
  0.79452242E-06 -0.57352682E-06 -0.85557480E-06  0.14299942E-05 -0.19561251E-06
  0.91151018E-07  0.16485064E-04 -0.63255581E-05  0.56187812E-04  0.48385764E-04
 -0.53426205E-05  0.52026719E-05  0.60074640E-05  0.89762742E-05 -0.41100553E-05

 -0.11096189E-05  0.87960060E-06 -0.56525295E-06 -0.12095476E-05  0.91834410E-07
  0.18842341E-05  0.81233014E-07 -0.60192325E-06 -0.14902737E-05 -0.28937274E-05
  0.21697686E-05  0.10682318E-05 -0.23061482E-05  0.37358435E-05  0.16686803E-05
 -0.66984605E-06 -0.66138447E-06  0.21747114E-05  0.34955860E-05  0.15458318E-04
 -0.51794496E-05  0.16513141E-03 -0.50548489E-04 -0.38245970E-04 -0.57768853E-04
 -0.45144339E-05 -0.61154282E-05 -0.52245269E-06 -0.11167223E-05  0.79553229E-06
 -0.21355570E-05  0.33428689E-05 -0.13849349E-05  0.25610154E-06 -0.17603465E-05
 -0.17792669E-05  0.85189535E-05 -0.26793322E-06  0.24301489E-05  0.75360345E-05
  0.98444014E-05 -0.17351369E-05  0.99542980E-05  0.18140249E-04  0.89313971E-05
 -0.25429344E-06  0.30436935E-06 -0.18098751E-05 -0.27635346E-05  0.51136995E-06
  0.37060415E-05 -0.10931779E-06  0.15606295E-05  0.23981828E-05 -0.15203923E-05
 -0.14957726E-05  0.79211606E-06  0.44852355E-04 -0.18226423E-04 -0.16958543E-04
  0.13111612E-05  0.31655768E-05 -0.49751052E-06 -0.17594774E-05 -0.31626423E-06
  0.94710286E-06 -0.24732140E-05  0.15141862E-05  0.13910229E-05  0.82157976E-06
 -0.39268181E-05 -0.12490454E-05  0.64657537E-06  0.30153542E-06 -0.86991697E-06
 -0.33814794E-05  0.10466492E-06  0.19972871E-05  0.10795265E-05 -0.94352978E-07
 -0.75388924E-06  0.34747144E-06 -0.33881765E-06  0.62854225E-06 -0.39820394E-05
  0.25148138E-05  0.16477078E-05 -0.14355990E-05 -0.13325595E-05 -0.46737420E-06
  0.41178572E-05  0.73519313E-05 -0.78386724E-05 -0.98040869E-06  0.14429032E-04
 -0.59308921E-05 -0.31451054E-05 -0.66076309E-06  0.15154926E-04  0.39863570E-07
  0.93103727E-06 -0.60155147E-06  0.12033611E-05  0.31467124E-05 -0.10231262E-05
 -0.13027218E-05  0.90290856E-06 -0.49733551E-07  0.44896898E-05 -0.46800282E-05
 -0.98253356E-05  0.26114669E-04 -0.16029727E-04  0.21466871E-04 -0.12149249E-04
 -0.25987038E-04 -0.15147527E-04 -0.12768147E-05 -0.22862076E-05 -0.47155384E-06
 -0.13402749E-05  0.27878439E-06  0.18529154E-06  0.11728274E-05 -0.21876526E-06
  0.39019557E-06  0.30361171E-05 -0.29230823E-04 -0.25177092E-05  0.20247795E-04
 -0.12503886E-04  0.41522617E-05  0.75155749E-05  0.16899084E-04  0.14868445E-05
  0.40952677E-06  0.16291639E-06  0.16154863E-05 -0.27074014E-05  0.40058061E-06
  0.33503103E-05 -0.65765918E-07 -0.21788774E-06 -0.57810950E-06 -0.54940440E-05
 -0.17302562E-04  0.17955312E-04 -0.21124927E-04  0.29208528E-04 -0.17387698E-06
 -0.70420665E-05  0.64374219E-06  0.23014530E-05 -0.83489772E-06  0.67303175E-06
 -0.16887243E-06 -0.74482059E-06 -0.44267407E-06  0.15253973E-05  0.37100261E-06
 -0.14786689E-06  0.21258350E-06 -0.22478348E-05 -0.70966804E-06  0.83585562E-07
 -0.13639785E-05  0.26631742E-05 -0.21205610E-06 -0.16354145E-05  0.12612351E-05
  0.35592652E-06  0.46018909E-06  0.95442917E-06  0.23023233E-06 -0.11899907E-06
  0.11537689E-05  0.10207679E-05  0.97002666E-06 -0.69601245E-06  0.79000750E-06
  0.15469822E-06 -0.11334994E-05  0.90915183E-06  0.37505396E-05  0.32473559E-05
 -0.13507518E-05 -0.65222582E-06  0.10451188E-05  0.16033938E-05  0.56833084E-06
  0.19746798E-05 -0.10437115E-05 -0.36826016E-05  0.27009824E-05  0.78328008E-06
  0.16559487E-05  0.93895475E-07  0.93696210E-06 -0.19840598E-04  0.13461403E-04
  0.52254720E-04  0.77280211E-05  0.17150367E-04  0.18569594E-04  0.14152697E-05
  0.12471685E-04 -0.11735284E-04 -0.13762825E-05 -0.11745150E-07 -0.36348131E-06
 -0.10432368E-05  0.25713173E-05  0.16522162E-05  0.21149427E-05  0.10593376E-05
 -0.94116874E-07  0.94880975E-05 -0.19555586E-05  0.32840288E-05 -0.80543783E-04
  0.19750819E-04  0.30910010E-04 -0.75069429E-05 -0.19052259E-05 -0.40345955E-04

 -0.20603751E-06 -0.24989017E-05 -0.13407012E-05  0.11736053E-05  0.22058037E-05
 -0.21253893E-05 -0.89468516E-08 -0.11972095E-05  0.11676578E-05  0.73598616E-06
  0.10224566E-05  0.47965587E-05  0.23494758E-05 -0.42363744E-05 -0.60511294E-07
  0.13445716E-05  0.44513978E-06 -0.13261819E-05  0.35338814E-04  0.60544451E-04
  0.14059200E-04  0.95395391E-05 -0.65806736E-04 -0.15792429E-05 -0.12822708E-04
  0.15799213E-06 -0.11384280E-05  0.53617204E-06 -0.10883990E-05 -0.78409401E-06
  0.30689476E-05 -0.82071293E-05  0.48303498E-06 -0.97699588E-06 -0.26743537E-06
  0.47920879E-07  0.14774419E-05  0.87969343E-05 -0.41181001E-05  0.72832256E-05
  0.34024636E-04  0.13337289E-04  0.15283943E-04  0.12115187E-04  0.67740883E-06
 -0.35260397E-06  0.87192897E-06  0.10880975E-05  0.12784109E-05  0.12414699E-05
 -0.32399506E-05  0.12375446E-05 -0.48062717E-07  0.30752338E-05  0.15099538E-05
  0.22190007E-05  0.98992206E-06 -0.18226423E-04  0.73836860E-04 -0.14406063E-04
  0.39657534E-05  0.19612213E-05  0.65098305E-05 -0.46606423E-06 -0.10699786E-05
  0.29887446E-05 -0.97758699E-06  0.15528749E-05  0.26734834E-05 -0.52145573E-07
 -0.65968663E-06 -0.23195693E-05 -0.31791902E-05  0.10031740E-05  0.22983762E-05
  0.18468245E-05  0.58661047E-06  0.15616899E-05 -0.43220418E-05  0.21592979E-05
  0.16814427E-05 -0.19490005E-05  0.98086731E-06 -0.16072206E-05  0.24581443E-05
 -0.12117956E-04  0.20535275E-05  0.29768492E-05  0.40250017E-06  0.86257581E-06
 -0.12622175E-04 -0.12001563E-04 -0.49270105E-05 -0.43682411E-05 -0.14222388E-04
  0.24242765E-04 -0.10733905E-04  0.13315120E-04  0.42641142E-07  0.23802491E-05
 -0.39680449E-05  0.55328403E-06  0.13474596E-05 -0.72321618E-05 -0.38821261E-06
 -0.92507581E-06  0.92151046E-07  0.28091960E-05 -0.68930141E-06 -0.29959545E-04
 -0.28714647E-04 -0.23812171E-04  0.86012378E-04 -0.37900546E-04 -0.97084767E-05
  0.70635627E-05 -0.10202872E-04 -0.32111414E-05 -0.14922061E-05 -0.71677066E-06
  0.42008462E-07  0.97803384E-06  0.44825405E-06  0.77737461E-06 -0.19204829E-05
 -0.11691174E-05 -0.15473612E-05 -0.26948248E-04 -0.32301239E-05  0.34864075E-04
 -0.11880963E-03  0.19595364E-04  0.29787973E-04 -0.82219003E-05 -0.12431222E-04
 -0.22065578E-06  0.13930731E-05 -0.83030013E-06  0.90146077E-06  0.27157898E-05
  0.70234589E-06 -0.85357170E-07 -0.34318639E-06 -0.70209523E-06  0.75897813E-05
  0.11301519E-04 -0.80933779E-05  0.23239452E-04 -0.50212825E-04 -0.99301564E-05
  0.94388034E-06  0.27481363E-05  0.10834308E-04 -0.41186736E-06  0.91471171E-06
 -0.10671022E-06 -0.24001100E-06  0.11005302E-05  0.71512192E-06 -0.20306173E-07
  0.18056322E-06  0.10159793E-06  0.37330355E-05 -0.39690167E-05  0.15059119E-05
  0.20938575E-05 -0.95758724E-05  0.25160030E-05  0.40564183E-05 -0.88481988E-06
  0.78383186E-06 -0.93045292E-06 -0.30989591E-05 -0.43938345E-06  0.60600102E-06
 -0.15088485E-05  0.51274946E-06 -0.23366315E-06  0.25303440E-06 -0.17782339E-05
 -0.15532089E-05  0.94272282E-05 -0.10030998E-05  0.20360628E-05 -0.95968157E-05
  0.27790038E-05 -0.55570305E-06 -0.72005310E-06 -0.46036051E-06 -0.24381507E-05
 -0.33310647E-05  0.41226420E-06  0.36027590E-06 -0.29647563E-05  0.95709285E-06
 -0.30747695E-05 -0.21273629E-06  0.22570047E-06  0.31463124E-04 -0.26035068E-04
 -0.21794361E-04  0.15779830E-04 -0.78084572E-04 -0.10632781E-05 -0.16233645E-04
 -0.50178262E-04  0.75165026E-05  0.28473855E-05  0.27476777E-05  0.74236837E-06
  0.28253438E-05 -0.65479496E-05  0.23343391E-05 -0.70217957E-06 -0.11576457E-07
  0.14337978E-05 -0.53428449E-05 -0.15831452E-04  0.41628019E-05 -0.11478383E-04
 -0.89091538E-05  0.21155301E-04 -0.84490906E-05  0.86252315E-05  0.32094938E-04

 -0.82777524E-08 -0.93797332E-06  0.41061076E-06  0.63197003E-06  0.20075864E-06
 -0.11820723E-05  0.67474057E-06  0.66782532E-06  0.22618063E-05  0.52347119E-06
  0.15817527E-05 -0.30870250E-05  0.74614038E-06  0.20549463E-05 -0.59217625E-05
  0.43175669E-06  0.18020663E-05  0.15315646E-06  0.14197608E-04 -0.17248762E-04
  0.16333394E-04 -0.29323840E-04  0.14407713E-04  0.64483970E-04  0.27160485E-04
  0.15954829E-05 -0.52382029E-04  0.29410442E-06  0.94230173E-06 -0.34346638E-05
 -0.15983984E-05 -0.93418056E-06  0.75570904E-05  0.17055171E-06  0.39088195E-06
  0.11867665E-05  0.62511594E-05  0.66274017E-05 -0.49185499E-05 -0.43452976E-06
 -0.38421130E-04 -0.43944480E-05 -0.29612505E-04 -0.14614118E-04 -0.46558956E-05
  0.42062324E-06  0.93768867E-06  0.36259109E-05  0.27794677E-05 -0.11049199E-05
 -0.11556886E-05  0.21793431E-06 -0.26202800E-06 -0.69994410E-05  0.80513847E-06
  0.32180361E-05 -0.23189432E-05 -0.16958543E-04 -0.14406063E-04  0.58379250E-04
  0.26882580E-06  0.38275693E-06  0.21928196E-05  0.32482136E-05  0.63394230E-06
 -0.41520008E-05  0.26745478E-05  0.13696955E-05 -0.28480302E-05 -0.16795314E-05
  0.39938539E-05  0.69842949E-05 -0.39175052E-06 -0.61084083E-06 -0.36336797E-06
  0.13150029E-05  0.23232322E-05 -0.55011351E-05  0.20237671E-05  0.59409952E-06
 -0.98445916E-06 -0.45841025E-06  0.25891695E-05  0.95608206E-06  0.96644911E-06
  0.40380709E-05 -0.15690057E-05  0.52406859E-06  0.10232648E-05  0.17175587E-05
  0.85883923E-05 -0.77429778E-05  0.91685080E-05 -0.16251816E-05  0.65995181E-05
 -0.11371675E-04 -0.52412675E-05  0.73263545E-05 -0.22741249E-04 -0.11907795E-05
  0.12545891E-06 -0.15951195E-05 -0.14353209E-05 -0.69183066E-06  0.42366932E-05
  0.11480392E-05 -0.12567744E-05  0.17444559E-05 -0.83459794E-05 -0.19326485E-04
 -0.34555177E-05  0.20281825E-04 -0.13745851E-04 -0.32680040E-04  0.48700599E-05
  0.21308988E-04  0.32346789E-04  0.12704430E-05  0.35262801E-06  0.42873128E-05
 -0.11825194E-06  0.53935203E-06  0.19166288E-05 -0.14729367E-05  0.14094475E-05
  0.14049259E-06 -0.51305719E-05  0.27047348E-04  0.33128714E-04 -0.10477839E-04
  0.38318145E-04 -0.16801542E-04 -0.21301548E-04 -0.30747631E-05  0.24682227E-05
  0.25928756E-05 -0.13851297E-05  0.18341455E-05  0.69552776E-06  0.11080551E-05
 -0.23709322E-05 -0.13612804E-05  0.19355644E-05  0.14939603E-05 -0.15515587E-04
 -0.20140159E-06 -0.11556597E-06 -0.86412516E-05 -0.20120814E-05  0.82783212E-05
  0.99621486E-05 -0.36300156E-06 -0.32613564E-04 -0.18018480E-06  0.12582029E-05
  0.28749666E-06  0.13149946E-05  0.45322193E-06 -0.42085290E-05 -0.84829259E-06
 -0.11620188E-05 -0.16998380E-05 -0.93818922E-06  0.53504615E-06  0.49595162E-06
  0.44965982E-07  0.15673365E-05 -0.21383811E-05 -0.28739526E-06 -0.13301229E-05
 -0.60127812E-06  0.39982399E-06  0.61386259E-06  0.70599712E-06  0.66162189E-06
 -0.59160578E-06 -0.11418509E-05 -0.74632756E-06 -0.20025473E-06 -0.11543744E-05
  0.99447901E-06 -0.31758005E-05 -0.16447453E-05 -0.11964335E-06  0.20944945E-05
 -0.29298702E-05  0.78843565E-06  0.13689169E-05 -0.28093566E-05 -0.44453511E-06
  0.60248239E-06 -0.51420623E-06  0.14068233E-05 -0.45723458E-06  0.11037000E-05
 -0.67867056E-07  0.17953417E-06  0.12638621E-05  0.79682138E-06  0.18066467E-04
 -0.94839484E-05 -0.15341709E-04  0.10348459E-04  0.47972892E-04 -0.17717122E-05
  0.83446481E-05  0.15207369E-04  0.34057217E-06 -0.77798259E-06  0.91266909E-06
  0.59295974E-06  0.19359807E-05 -0.39127161E-05 -0.28239094E-07 -0.10557790E-05
  0.79045767E-06  0.13111766E-04  0.83265268E-05 -0.58700770E-05  0.34810981E-04
 -0.57115759E-05 -0.87823824E-05  0.27760418E-04 -0.41111364E-04  0.49664099E-05

 -0.49110256E-06 -0.90308823E-06 -0.68048221E-06  0.46269445E-06 -0.18392959E-05
  0.25939192E-06  0.29399318E-06  0.19193005E-06 -0.70785192E-06  0.19761281E-06
  0.79004831E-07 -0.16349153E-05  0.79105514E-06 -0.73158940E-06 -0.63979109E-06
 -0.14696220E-05  0.37257424E-06 -0.16523175E-05 -0.10092962E-05 -0.30896542E-04
 -0.17496978E-05  0.52961347E-04 -0.37325991E-04 -0.15046375E-04 -0.11537370E-04
 -0.95296039E-05 -0.17048675E-04 -0.67042222E-06 -0.20426876E-05  0.10842297E-06
  0.49562288E-06  0.54607028E-06 -0.64476965E-06 -0.62138935E-06  0.32774153E-08
 -0.10569766E-05 -0.68820357E-05 -0.75015059E-06 -0.51580582E-05  0.12175844E-04
 -0.27953665E-04 -0.30463265E-05 -0.92314226E-05  0.80379729E-05 -0.16829450E-04
 -0.13003907E-05  0.53391168E-06  0.17457575E-06 -0.16181651E-05  0.80766398E-06
  0.99356091E-06 -0.74091487E-06  0.21634946E-05 -0.64855347E-07 -0.41938685E-06
  0.21587370E-06 -0.12484577E-06  0.13111612E-05  0.39657534E-05  0.26882580E-06
  0.24632686E-04  0.13898633E-05  0.24483144E-05  0.36223867E-06 -0.58334808E-06
 -0.92243764E-06 -0.85475370E-06  0.22772036E-05 -0.23119691E-05  0.43845464E-06
 -0.71473507E-06 -0.59875354E-07 -0.19511769E-06 -0.31199982E-05  0.84580158E-06
  0.26879877E-05 -0.37692741E-05  0.81128431E-06 -0.11301843E-05 -0.68253632E-07
  0.14700794E-05 -0.78954061E-06  0.11224932E-05  0.42877874E-06 -0.97116914E-08
  0.23497527E-05 -0.10461098E-05 -0.18163163E-05  0.64290462E-06 -0.22353388E-07
  0.19540952E-05  0.28415669E-05  0.98601652E-05  0.94966469E-07 -0.24021876E-04
  0.92972799E-05 -0.16613719E-04 -0.34874564E-05 -0.86341978E-05  0.84576236E-06
  0.81292783E-06 -0.73366190E-06 -0.12595799E-05  0.79026248E-06  0.16701671E-05
 -0.18260757E-05  0.39951286E-06 -0.14407973E-06 -0.55475105E-05 -0.67083752E-05
  0.17116394E-05 -0.86984311E-05 -0.17220574E-04  0.14880216E-04 -0.13211820E-05
 -0.11730769E-04 -0.11776742E-04 -0.57968581E-06 -0.21263179E-05  0.27541641E-06
 -0.24218380E-06 -0.16869878E-05 -0.10349868E-05 -0.17709477E-05 -0.13527448E-06
  0.11329549E-05  0.84785209E-08 -0.15067638E-04  0.20898095E-04 -0.10032745E-04
  0.33854794E-04  0.55867044E-05  0.14108507E-05  0.76512133E-05 -0.59660265E-05
 -0.26212967E-07  0.13788202E-05 -0.38752894E-06 -0.11935832E-05 -0.63461914E-07
  0.80573840E-06 -0.95891955E-06 -0.63559235E-06  0.40034933E-06 -0.53746724E-06
 -0.49126940E-05 -0.15969902E-05  0.25556749E-05  0.11155526E-04 -0.13962554E-05
  0.39960381E-05 -0.90377225E-05 -0.28068362E-05 -0.35059312E-06  0.99408933E-06
  0.98659490E-06  0.56315864E-08 -0.83508585E-06  0.85547810E-06 -0.16256173E-05
  0.27174768E-07 -0.39063748E-06 -0.35732099E-06  0.25167566E-06  0.18175634E-05
 -0.14670416E-05  0.35265092E-05 -0.12891742E-05 -0.11994664E-05  0.71928602E-06
 -0.63007505E-06 -0.12656561E-07 -0.50388492E-06 -0.76329002E-06 -0.38718707E-06
  0.39551008E-06 -0.47945866E-06 -0.73322217E-06 -0.10184725E-05 -0.10914127E-05
  0.27277302E-05  0.46673605E-06 -0.14878894E-05  0.74073539E-07 -0.13869809E-05
  0.44019105E-06  0.12183867E-05  0.48746769E-06  0.31064013E-06 -0.18404446E-05
 -0.12480148E-05 -0.19924349E-05 -0.11691211E-05 -0.64631355E-06  0.35492666E-06
 -0.10200729E-05  0.21304027E-06 -0.31415158E-06  0.93781008E-05 -0.14674905E-04
 -0.30875683E-04 -0.94099646E-05 -0.35567044E-05 -0.19374508E-04 -0.66447730E-05
 -0.36008548E-04 -0.28605747E-04  0.11607627E-05  0.90297831E-06  0.45340331E-06
  0.20404807E-05 -0.59684629E-06 -0.54735174E-06  0.69530388E-06 -0.90010299E-07
 -0.40175978E-06  0.47108806E-05 -0.67310277E-05 -0.75728196E-05 -0.50250049E-04
  0.54034307E-05  0.83017020E-05  0.58746589E-08 -0.82427209E-05  0.49787653E-05

 -0.11493150E-06 -0.55182450E-06 -0.25322340E-06 -0.64204224E-06 -0.69938210E-06
  0.46529681E-06 -0.49522617E-06 -0.67559069E-06 -0.23581318E-06 -0.30352792E-06
  0.21258243E-05  0.13805862E-05 -0.81679608E-07  0.10515880E-06  0.14003313E-05
  0.12375720E-05 -0.80882432E-06  0.98447895E-06  0.45953398E-05  0.13238156E-04
  0.79799507E-05  0.49153095E-04 -0.28157375E-04  0.18500886E-05 -0.35481928E-04
  0.91151960E-05  0.12003350E-04 -0.49066522E-06  0.73793412E-06  0.95238693E-06
 -0.16816460E-05 -0.19425187E-06  0.14004324E-05 -0.33870302E-06 -0.26983075E-06
  0.88652734E-06 -0.43712868E-05  0.34938747E-05  0.13793245E-05 -0.10214333E-05
 -0.11644559E-04 -0.12020863E-04 -0.11712653E-04 -0.11721881E-04 -0.15660677E-04
 -0.11753851E-06  0.86426614E-06  0.38131476E-06  0.14369154E-05  0.13638413E-05
 -0.13814063E-05  0.11931160E-05  0.12008856E-05  0.36218879E-06 -0.13839892E-05
  0.34874919E-06  0.20743596E-05  0.31655768E-05  0.19612213E-05  0.38275693E-06
  0.13898633E-05  0.23163240E-04  0.37272530E-05  0.23507090E-06 -0.20354253E-05
  0.35440614E-05 -0.48063939E-05 -0.66443910E-06  0.47502670E-05  0.42291975E-07
 -0.88674073E-06 -0.27010712E-05 -0.42533090E-06  0.13725650E-05 -0.54356061E-06
  0.16138638E-06  0.11479745E-05  0.10154801E-05  0.18774789E-06 -0.19330358E-05
  0.15200567E-05  0.12700386E-05 -0.27442251E-06 -0.46785937E-06 -0.69223771E-06
  0.12584544E-05 -0.10512197E-05  0.36727878E-06 -0.44656142E-06  0.45665400E-06
 -0.44673064E-05 -0.26737461E-05  0.38624522E-05 -0.25675991E-05 -0.71165214E-05
  0.11850449E-04  0.29122509E-05 -0.53778140E-05 -0.32339422E-05  0.10654984E-05
 -0.16577626E-05 -0.43900173E-06  0.21435426E-06 -0.58228642E-08 -0.38502665E-06
 -0.56689517E-06  0.54044898E-06 -0.45277778E-06 -0.95466873E-05 -0.31094054E-05
 -0.43684401E-05  0.12572269E-04  0.63778729E-05 -0.91281688E-05  0.11306702E-05
 -0.19901418E-04 -0.51554021E-05  0.25061419E-06  0.63088650E-06 -0.53469918E-06
 -0.18325313E-06  0.10519031E-05  0.18523849E-06  0.32445806E-06 -0.74776487E-06
  0.89017494E-07 -0.95501958E-05 -0.56485534E-05 -0.40430971E-08  0.25744036E-04
 -0.17755348E-04  0.87282135E-05  0.41749874E-05 -0.70942429E-05  0.73956822E-05
  0.47350215E-06  0.32178698E-06  0.37055464E-05 -0.19854837E-06 -0.10619650E-05
  0.26016944E-05  0.70658897E-06 -0.44879863E-06 -0.18087992E-05 -0.78065444E-06
 -0.20291508E-05 -0.34076441E-05 -0.64302737E-05  0.10164082E-04 -0.96817791E-05
 -0.12119216E-04  0.62543707E-05  0.14858560E-04  0.32693824E-06 -0.43318844E-06
 -0.18445984E-06  0.39281326E-06 -0.22332414E-06 -0.11012746E-05  0.17023700E-06
 -0.19636826E-05 -0.44055529E-06  0.64681952E-06  0.12979455E-05  0.10797698E-06
  0.18134871E-06 -0.12005472E-05 -0.78213779E-06  0.46714456E-06 -0.14157562E-05
  0.11153456E-05  0.13877560E-07 -0.77386529E-06  0.22438739E-06 -0.31372631E-06
  0.46493104E-06 -0.25496758E-06 -0.29478344E-06 -0.10443781E-05  0.19714290E-06
 -0.14701758E-06 -0.52823115E-06  0.10573498E-05  0.12417821E-05 -0.19162386E-05
  0.19179188E-05  0.38761729E-06 -0.61744092E-06 -0.13395008E-05 -0.26237160E-06
  0.14261057E-05  0.46830580E-06  0.69088095E-06 -0.74346141E-08 -0.17381161E-06
 -0.60278611E-06  0.72663747E-07  0.23741447E-06  0.19009324E-04 -0.59269130E-05
 -0.16438293E-04  0.12943175E-04 -0.60067636E-05  0.72452728E-05  0.79539747E-05
 -0.17742771E-04 -0.19942821E-04  0.49488329E-06  0.81938315E-07 -0.50502855E-06
  0.13572212E-05  0.27767611E-06 -0.13048545E-05  0.36770354E-06 -0.81901826E-06
 -0.25475201E-06 -0.26236979E-05 -0.85386704E-05  0.22095029E-04 -0.14452386E-04
  0.77375157E-05 -0.32381945E-04 -0.70933254E-05  0.88947509E-05  0.86526149E-05

 -0.25524793E-06 -0.15122053E-05 -0.11705172E-05 -0.81320712E-06  0.58106037E-06
  0.15712588E-05 -0.12529468E-06  0.10938182E-05  0.70579069E-06 -0.56768367E-06
  0.14693101E-05  0.28930811E-05  0.67146006E-06  0.31749268E-05 -0.31386219E-05
 -0.34159731E-06 -0.36885744E-07 -0.15813765E-05  0.13833540E-04  0.17259501E-04
  0.15730978E-04 -0.19991957E-04  0.52451060E-05  0.13421882E-05 -0.31058982E-04
 -0.28150326E-04 -0.19038490E-04 -0.15795858E-06 -0.34649510E-06 -0.20080470E-06
 -0.47831040E-06 -0.34962726E-05  0.15633055E-05 -0.18480970E-05 -0.15746931E-05
  0.10013805E-05 -0.33578285E-05  0.19212801E-06  0.21786878E-05  0.39489079E-05
 -0.23890824E-04 -0.10428562E-04 -0.13702911E-04 -0.12444639E-04 -0.17590774E-04
  0.29027295E-06  0.31693770E-05  0.26617481E-05  0.35255822E-05  0.16372615E-05
 -0.58147793E-05  0.10169065E-05  0.86193653E-06 -0.42951543E-05  0.23626532E-06
  0.32805748E-06  0.25348010E-05 -0.49751052E-06  0.65098305E-05  0.21928196E-05
  0.24483144E-05  0.37272530E-05  0.33820993E-04 -0.11723715E-05  0.11489823E-05
  0.32977816E-05 -0.15939938E-05 -0.26323611E-05  0.56295469E-05  0.65001345E-07
 -0.27590310E-05 -0.10603398E-06  0.44463183E-06  0.33689405E-05  0.15386348E-05
 -0.23459266E-06  0.28575102E-05 -0.19869206E-05  0.10886104E-05  0.10370692E-05
  0.67007530E-06 -0.88718230E-07 -0.30485678E-05 -0.11639846E-05  0.32397581E-06
 -0.97234517E-06 -0.81044216E-06 -0.71305834E-06 -0.60101393E-06  0.11847451E-05
 -0.20589566E-05  0.20110421E-05  0.77721504E-05 -0.67252734E-06 -0.11294407E-04
 -0.53608373E-05 -0.12757643E-04 -0.14208506E-05  0.21943688E-05 -0.37981090E-07
 -0.46693737E-06  0.12848792E-07  0.49014311E-06  0.26860725E-06  0.20097531E-05
 -0.45160202E-06  0.20250318E-05 -0.21977396E-05  0.28153939E-05  0.35095202E-05
 -0.45647337E-05 -0.30474093E-04  0.24601867E-04  0.20802476E-04 -0.33923698E-05
  0.93181907E-05  0.20915764E-05  0.66124284E-07  0.35469316E-05 -0.26386974E-05
 -0.42536636E-06  0.11858066E-05 -0.39241599E-07  0.21697059E-06 -0.16503928E-05
 -0.22358685E-05  0.15069633E-04  0.44610567E-05 -0.15997133E-04 -0.12585427E-04
 -0.37604126E-05  0.15195291E-04  0.10993629E-04  0.15667810E-04 -0.26509479E-05
 -0.14514495E-06 -0.10054330E-05  0.17786049E-05  0.76780775E-07 -0.21250732E-05
 -0.46542206E-07  0.37072999E-06 -0.72024596E-07 -0.14402494E-05 -0.37320323E-05
 -0.16685400E-05  0.91723462E-05  0.36264370E-05 -0.11645933E-04 -0.15439343E-04
 -0.23178773E-05  0.82833720E-05  0.21331319E-04  0.10841872E-05 -0.12800576E-06
 -0.12397850E-05 -0.43295546E-06  0.17475412E-05 -0.43780756E-06 -0.39240870E-06
 -0.16684263E-06 -0.17902668E-06  0.18881341E-05 -0.71322360E-06  0.48544749E-07
  0.54240891E-06 -0.37475192E-05  0.18011209E-05  0.14718246E-06 -0.38248186E-06
 -0.20968246E-05 -0.43064473E-06 -0.12970137E-06  0.39112145E-06 -0.39380344E-06
 -0.34348279E-06 -0.79144314E-08 -0.82971538E-07  0.11403048E-07 -0.67990894E-06
 -0.14586400E-05 -0.39590255E-07 -0.60910212E-06  0.96727009E-06 -0.49448486E-06
 -0.21859211E-05  0.28022844E-06 -0.50381938E-06 -0.81387138E-06 -0.32456683E-05
  0.88318030E-06 -0.28604655E-05 -0.61185823E-06  0.14701305E-05  0.11269258E-05
 -0.22441710E-05 -0.12241145E-05 -0.12277927E-05  0.11743925E-04 -0.17820601E-04
  0.85054593E-05  0.43053256E-05  0.48170183E-05 -0.11611713E-03 -0.29435601E-04
 -0.29387458E-04 -0.19795662E-05  0.30866886E-06  0.39322424E-06 -0.34356693E-06
  0.58496003E-06 -0.45285777E-06 -0.31436451E-06 -0.21989476E-06 -0.35484560E-07
  0.13031073E-05 -0.11825888E-04 -0.77208007E-05  0.12640452E-04 -0.21679672E-04
 -0.19794340E-04  0.12363853E-04 -0.76842065E-05 -0.81338026E-05  0.11506282E-04

 -0.14112176E-06 -0.93102252E-06  0.62435019E-06  0.40726149E-06  0.64280008E-06
 -0.10718486E-05 -0.11277383E-05 -0.99113062E-06  0.50887513E-07  0.12362627E-05
  0.70548619E-06  0.93222812E-06 -0.21148289E-06 -0.84280695E-06 -0.18163444E-06
  0.78162987E-07  0.63652444E-06 -0.91824618E-06 -0.10838642E-04 -0.15757189E-04
 -0.13972322E-05  0.42783759E-04 -0.27343735E-04 -0.75295357E-05 -0.11392146E-04
 -0.14262276E-05 -0.15052857E-05 -0.19349729E-05 -0.90898067E-06 -0.78133428E-06
  0.60358719E-06 -0.12497028E-06  0.73506144E-06  0.87629878E-06  0.91401103E-06
  0.10049465E-05  0.47864242E-05 -0.46776603E-05 -0.72139409E-05  0.15403483E-04
 -0.20779482E-04  0.19332697E-04 -0.24359277E-05  0.96327088E-05  0.17869779E-05
  0.72079821E-06 -0.19443462E-05  0.27238302E-06 -0.40592570E-06 -0.65368011E-06
  0.94026315E-07 -0.44448446E-06  0.10293900E-07  0.46872859E-06  0.63734698E-06
  0.85916846E-06 -0.12370245E-05 -0.17594774E-05 -0.46606423E-06  0.32482136E-05
  0.36223867E-06  0.23507090E-06 -0.11723715E-05  0.13709486E-04  0.52316329E-06
  0.29130604E-05 -0.70693792E-06  0.47027781E-06 -0.35007780E-06 -0.51537753E-06
  0.33985981E-06  0.53170909E-07 -0.92195259E-06  0.51084913E-06  0.21757422E-06
 -0.47643112E-06  0.79917202E-06 -0.82991723E-06  0.16959695E-06  0.44271874E-06
  0.47532904E-06 -0.51983520E-07  0.25769251E-07  0.64257719E-06 -0.15685391E-06
 -0.13129797E-05  0.49908647E-06 -0.20310309E-06 -0.69083745E-06  0.43589902E-06
 -0.16869721E-05 -0.11358187E-04 -0.16045507E-04  0.27185004E-04 -0.11892171E-04
 -0.38150384E-05 -0.97421719E-05 -0.61386177E-05 -0.10809941E-04 -0.18136707E-05
  0.23440020E-06 -0.23411605E-06 -0.47279160E-06 -0.27870478E-06  0.36842661E-06
  0.97895448E-06 -0.96041994E-06 -0.50270334E-06 -0.69006102E-05 -0.27469523E-06
  0.12660515E-04  0.17699771E-04  0.96308905E-05 -0.30235248E-04  0.54503489E-05
  0.14704646E-04  0.17179891E-05 -0.17162953E-06  0.34564071E-07  0.70799127E-06
 -0.15201318E-05  0.11892230E-05 -0.47937038E-06  0.74223121E-06 -0.33277577E-06
 -0.51161715E-06 -0.33230549E-05 -0.40372168E-05  0.19239540E-04  0.26456287E-04
 -0.23015419E-04 -0.26738914E-05 -0.91543533E-05  0.33857037E-05 -0.79393275E-05
  0.15303714E-05  0.30598091E-06 -0.20613924E-05  0.13769988E-05  0.89964256E-07
 -0.51012134E-07  0.51168943E-06  0.17161203E-05  0.15269175E-05 -0.22773712E-05
  0.11472620E-04 -0.17354471E-04 -0.19657763E-04 -0.16941451E-04  0.31894677E-04
  0.12857798E-05 -0.58464832E-05 -0.10940495E-04 -0.41719087E-06 -0.24086329E-06
  0.84148182E-06  0.11826672E-05  0.61130605E-06 -0.52929724E-06 -0.54930556E-06
 -0.66169471E-06 -0.21510970E-06 -0.10486029E-05  0.14738076E-06 -0.88984694E-06
 -0.61098698E-06 -0.28059248E-06 -0.35385296E-06  0.37027505E-08  0.61665809E-06
 -0.16137299E-06  0.13045380E-05 -0.96226562E-07 -0.16732454E-06 -0.17036129E-06
 -0.15666156E-06  0.63947192E-07  0.36571138E-06 -0.19376953E-06  0.62276598E-06
  0.13812926E-05  0.12104828E-06  0.35176725E-07  0.34115543E-05 -0.23062894E-06
  0.47162346E-06 -0.66779572E-07  0.82773251E-06 -0.74516500E-06 -0.24769780E-06
  0.40535560E-06  0.15740352E-06 -0.15138446E-05  0.14984935E-05 -0.14024193E-06
 -0.58655655E-06 -0.31760192E-06 -0.15892680E-05  0.17324658E-05  0.32275251E-06
  0.81966645E-05  0.26454615E-05  0.13664586E-04 -0.48406684E-04 -0.10528718E-04
 -0.13572349E-04 -0.18645948E-04  0.60678105E-08  0.64319684E-06  0.97939280E-06
  0.42017995E-06  0.10076355E-05 -0.13303933E-05 -0.93006794E-06  0.23775911E-06
  0.25272114E-06 -0.17764250E-04 -0.46813766E-05  0.41384295E-05 -0.11677721E-04
 -0.44453034E-05  0.65023934E-05  0.34180709E-05 -0.40349802E-05  0.46195850E-06

  0.32471620E-07 -0.29722290E-05 -0.10518404E-05 -0.90964599E-06  0.49443808E-05
  0.43249201E-06  0.51058376E-06 -0.51447013E-06  0.54125077E-06  0.13754829E-05
 -0.37368248E-05  0.33269479E-06  0.18102128E-05 -0.12311633E-06 -0.16940734E-05
 -0.14961084E-05  0.51500329E-06  0.70061886E-06  0.13545284E-04  0.25033540E-05
  0.16576971E-05  0.38236638E-04 -0.99265387E-05  0.85458937E-05  0.40470606E-04
 -0.23580936E-05 -0.34099052E-05 -0.30670154E-06  0.10372955E-05  0.56575896E-07
 -0.29052551E-06 -0.25058159E-06  0.32501118E-07  0.30461987E-06 -0.57187608E-06
  0.84235350E-06  0.54527420E-05  0.63011120E-05  0.10552870E-04  0.95349909E-05
  0.10073183E-04  0.53165682E-05 -0.51619410E-05  0.59015200E-05  0.21999907E-04
 -0.87050253E-06 -0.17759872E-05  0.49569809E-06 -0.11495815E-06 -0.64029655E-05
  0.12051741E-05 -0.36014201E-06 -0.95838371E-06 -0.11020784E-06 -0.22928726E-06
 -0.18310684E-05 -0.69097330E-06 -0.31626423E-06 -0.10699786E-05  0.63394230E-06
 -0.58334808E-06 -0.20354253E-05  0.11489823E-05  0.52316329E-06  0.21172745E-04
  0.71544585E-06 -0.50682697E-07  0.30669521E-05 -0.57859160E-06 -0.24685213E-06
  0.49181683E-06 -0.18805999E-06 -0.53938695E-07 -0.21032526E-05 -0.67975708E-07
  0.38554734E-06 -0.51391071E-06 -0.59230879E-06  0.12120128E-06  0.47899585E-06
 -0.13070457E-05 -0.64358873E-07 -0.23896303E-05 -0.26378173E-07  0.61754797E-06
 -0.18940271E-05  0.14767813E-05 -0.16982450E-05 -0.43564399E-06  0.78972050E-06
  0.52840250E-05  0.16106412E-04 -0.10094349E-04 -0.11122479E-05 -0.18491997E-04
  0.11523889E-04 -0.81306438E-05  0.23651001E-05  0.13764436E-04 -0.51501714E-06
 -0.45909838E-06  0.11204216E-05  0.54227179E-06  0.35980505E-05 -0.29366327E-06
  0.10205200E-05  0.60423415E-06 -0.21244555E-05  0.61029090E-05  0.19027699E-04
 -0.79238544E-05 -0.21620831E-04  0.14560664E-04  0.42000863E-05  0.25120734E-04
  0.14762403E-04 -0.13970201E-04  0.11077135E-05 -0.83039496E-06 -0.16315961E-05
 -0.10630394E-05 -0.94437323E-06  0.12724931E-05 -0.11580055E-06 -0.72989829E-06
 -0.19343638E-05 -0.10290053E-04  0.22183398E-04 -0.27874742E-04  0.21586063E-04
 -0.63687546E-04  0.78469448E-05 -0.25351403E-05 -0.43280304E-05  0.70443621E-06
  0.91903720E-06 -0.10555492E-05 -0.13819447E-05  0.11427188E-05 -0.17555862E-05
 -0.20324916E-06 -0.11675637E-05  0.90979403E-06  0.15653798E-06 -0.55839381E-05
  0.89203411E-05 -0.68717854E-05 -0.15514747E-05  0.11870812E-04  0.10881619E-04
  0.36438774E-05 -0.73594872E-05  0.60358131E-06 -0.32970168E-06 -0.59760225E-06
  0.33249653E-06  0.56898038E-08  0.63713786E-06 -0.43754430E-06 -0.17339204E-06
 -0.37850014E-06  0.51070718E-06 -0.83456209E-07 -0.41078530E-06 -0.55602005E-06
 -0.80518939E-06  0.99431081E-06  0.72016736E-06  0.72025880E-07  0.43868214E-06
 -0.47433375E-07 -0.16227135E-07  0.17911309E-05 -0.51778306E-06  0.37111170E-06
  0.31439076E-06  0.37599998E-06 -0.32259085E-06 -0.10169892E-06  0.29095723E-06
  0.45713196E-06  0.42036657E-05 -0.71760271E-06  0.61449564E-06  0.87626060E-06
 -0.56881542E-06  0.23045616E-05 -0.52711804E-06 -0.42346623E-06 -0.27289612E-05
  0.33657105E-06 -0.24938219E-05 -0.13057946E-05  0.50752948E-05 -0.21435250E-05
 -0.21481871E-05 -0.98093071E-06 -0.64963052E-07  0.21492596E-04 -0.16442363E-04
  0.44457389E-05  0.10159822E-04  0.45618819E-04 -0.47653712E-04 -0.40574440E-04
  0.10005331E-05  0.44645847E-04  0.25623042E-05  0.10177263E-05  0.59285269E-06
  0.68350250E-06 -0.12201269E-05  0.17669167E-05  0.20224848E-05  0.73848942E-06
  0.82109290E-06 -0.26765525E-04  0.12361479E-04  0.12469304E-04 -0.13035243E-04
  0.11142976E-05  0.23738281E-04 -0.12874920E-04  0.83402067E-05  0.15985879E-04

  0.49539019E-06 -0.19279994E-07  0.10433645E-05 -0.67322256E-06  0.96453450E-06
 -0.20347912E-05 -0.21323335E-06 -0.80089874E-06  0.73933148E-06  0.78600154E-06
  0.25208344E-05  0.24922534E-05  0.45118245E-06 -0.66121000E-06 -0.66230334E-06
  0.26111289E-07 -0.14000416E-06  0.99586097E-06  0.98288856E-05  0.17913068E-04
 -0.88601458E-05  0.14620395E-04 -0.24687265E-04  0.77996113E-05 -0.98040011E-05
 -0.16921508E-04 -0.13003613E-04 -0.88861142E-06 -0.50626535E-06 -0.81085762E-06
 -0.22453970E-06 -0.10346230E-05  0.42457677E-05  0.61932241E-06  0.22491126E-06
  0.79427697E-06 -0.57505293E-05  0.63007443E-05  0.21365112E-05  0.10612715E-04
 -0.71477310E-05  0.18255320E-05 -0.18364629E-05  0.77738316E-05 -0.84864243E-05
 -0.25074357E-07  0.32472351E-06 -0.16980652E-05  0.40994157E-06  0.45431355E-06
 -0.18970046E-05  0.59397334E-06 -0.19118935E-06  0.19918763E-06 -0.13906731E-05
 -0.19970457E-05  0.27874210E-05  0.94710286E-06  0.29887446E-05 -0.41520008E-05
 -0.92243764E-06  0.35440614E-05  0.32977816E-05  0.29130604E-05  0.71544585E-06
  0.17004629E-04 -0.17717960E-05 -0.12470357E-05  0.36229759E-05 -0.52199390E-06
 -0.13177234E-05 -0.85209556E-06  0.15864381E-06  0.89244971E-06 -0.11003766E-05
  0.34390347E-06  0.62633356E-06 -0.49619192E-06  0.42905851E-06 -0.60279321E-06
  0.14269656E-05  0.45887216E-06 -0.29410734E-05 -0.53295139E-06  0.83038685E-06
 -0.24206372E-05  0.38172133E-06  0.30110194E-06  0.88732517E-07  0.85406457E-06
 -0.14409466E-04  0.63907986E-05 -0.81402967E-05  0.12254856E-05 -0.48944290E-05
  0.18463644E-04 -0.15703071E-04 -0.57676663E-05  0.12939145E-04 -0.12091883E-06
 -0.71595269E-07  0.30136761E-06 -0.34844725E-06 -0.30063201E-06 -0.88528064E-06
  0.13968485E-06  0.42019056E-06  0.30078656E-06  0.77411936E-05  0.70306885E-05
  0.15692044E-05 -0.53530321E-05  0.11208049E-04  0.10963276E-04  0.27561628E-05
  0.52342537E-05 -0.11052226E-04  0.21943769E-06  0.14978407E-06  0.13563118E-07
 -0.47417485E-06  0.24408985E-07  0.26339625E-06  0.16182382E-06 -0.81259656E-06
  0.48312791E-06  0.11505120E-04 -0.73926855E-05 -0.18172932E-04  0.15648335E-04
 -0.16513507E-04  0.14936836E-04 -0.21354786E-05 -0.11970909E-04  0.29167244E-06
  0.10154442E-07 -0.11180384E-05  0.15969335E-05 -0.43858307E-06 -0.38560308E-06
  0.62165636E-06  0.44228722E-06  0.13569962E-05  0.15324160E-06 -0.35439213E-05
  0.17481633E-05 -0.15735302E-04 -0.11392182E-05 -0.54505240E-06 -0.15190746E-04
 -0.41804551E-05  0.16105314E-04  0.55394530E-06  0.73787132E-06  0.19778644E-06
  0.36002165E-06 -0.42667839E-07  0.11456556E-05 -0.18948960E-05  0.19758574E-07
  0.26362445E-06 -0.33612871E-06 -0.48771876E-06 -0.73043541E-06  0.32049044E-06
  0.39365774E-07 -0.12693356E-05  0.75096046E-06  0.28861026E-06 -0.72096657E-06
 -0.81901832E-06 -0.29441767E-06  0.18414164E-06  0.17746858E-05 -0.51158562E-06
  0.84616101E-06  0.10181658E-05  0.45155257E-06 -0.12381380E-06  0.55214154E-06
  0.21358722E-06  0.12074085E-05  0.16178468E-06  0.15445975E-05 -0.82437750E-06
 -0.30885557E-06 -0.27593962E-06  0.13549314E-05 -0.82854437E-06 -0.27495660E-06
  0.41259490E-07  0.11442231E-05  0.13331594E-06 -0.40008524E-06  0.40123958E-06
 -0.16519785E-05 -0.29298369E-06 -0.78809314E-06  0.89120823E-05 -0.79740615E-05
 -0.79358722E-05  0.32996302E-05  0.11133063E-04 -0.96045945E-04 -0.12352351E-04
 -0.78027820E-05 -0.11852811E-04  0.72502450E-06  0.17703961E-05 -0.84036070E-06
  0.95128496E-06 -0.92680842E-06 -0.13391790E-05 -0.16594658E-06 -0.72132412E-06
 -0.87914550E-06  0.33536031E-05  0.65429429E-05 -0.13175364E-04 -0.23971539E-04
 -0.22303569E-06  0.15942064E-04 -0.94608537E-05  0.61831636E-06  0.93741008E-06

  0.78846411E-06  0.12364379E-05  0.11205792E-05  0.49159663E-07 -0.11362759E-05
  0.22698205E-05  0.29123781E-06 -0.34393090E-06 -0.64278449E-06 -0.16412522E-05
  0.18799199E-05 -0.19114192E-05 -0.93117444E-06  0.28878053E-05  0.31899060E-06
  0.70172543E-06 -0.11283506E-05 -0.21632169E-06  0.20195963E-04  0.47827589E-04
  0.62611124E-05 -0.20325758E-04  0.14318298E-04 -0.72791582E-05 -0.17914043E-04
 -0.20731725E-04 -0.29953341E-04  0.12298003E-05  0.11331075E-06 -0.12887429E-05
 -0.16294534E-06  0.47578720E-06  0.85668857E-06 -0.11190754E-06 -0.20264270E-06
  0.11926981E-06 -0.38891006E-05 -0.32358024E-05 -0.63211487E-05  0.65801010E-05
  0.42107749E-04 -0.61492914E-05  0.95384905E-05 -0.18819173E-05  0.23840350E-04
 -0.32582356E-06  0.14474478E-05 -0.16664098E-05  0.29539001E-05  0.69802549E-06
  0.17353909E-05  0.71884265E-06  0.14678161E-05  0.13655357E-06 -0.73040425E-06
  0.22868464E-05 -0.27405961E-05 -0.24732140E-05 -0.97758699E-06  0.26745478E-05
 -0.85475370E-06 -0.48063939E-05 -0.15939938E-05 -0.70693792E-06 -0.50682697E-07
 -0.17717960E-05  0.31020061E-04 -0.99475118E-05 -0.98845795E-05  0.41399270E-06
  0.23395527E-05  0.57771366E-06  0.63678750E-06  0.11773932E-05  0.10287472E-05
 -0.24662509E-05  0.20314054E-05  0.12122410E-05  0.67457227E-06 -0.59388492E-06
  0.19960658E-06 -0.91418378E-06 -0.36910466E-06 -0.16410813E-05 -0.12780062E-05
  0.15000838E-05  0.25623567E-05  0.35271524E-06 -0.52750733E-06 -0.58754187E-06
 -0.14348154E-05  0.11759803E-05 -0.52823783E-05 -0.39061509E-04  0.33959669E-04
 -0.35075059E-05 -0.13744228E-04  0.78712434E-05 -0.76994722E-05 -0.36248614E-06
 -0.95696119E-06  0.69181867E-07  0.43373744E-06  0.24494851E-05 -0.29858001E-06
  0.10051167E-05  0.84713957E-06  0.18882357E-05  0.31335524E-05  0.60198399E-05
 -0.11412544E-04  0.62940767E-04 -0.16141958E-04  0.94659101E-05 -0.14594021E-05
  0.13784599E-04 -0.61257009E-05 -0.42277344E-06 -0.15547430E-05  0.17695281E-05
  0.59936176E-06  0.74804412E-06  0.78966417E-06  0.43044256E-06 -0.16629487E-05
 -0.84839108E-06  0.24210446E-04 -0.24773300E-04  0.18863949E-04  0.32331667E-04
 -0.98848508E-05  0.87524621E-05 -0.30265259E-04 -0.15648180E-04 -0.11581243E-04
 -0.44755984E-07 -0.26236516E-06 -0.20825522E-06  0.63459260E-06  0.25077556E-05
 -0.23478961E-06 -0.71384977E-06 -0.25880063E-06  0.99129447E-06  0.14543384E-04
 -0.16676748E-04  0.80932959E-05 -0.23163522E-04  0.11221719E-04  0.47598790E-05
  0.62713087E-05  0.19670461E-05  0.12360134E-04 -0.19221664E-07  0.50991854E-07
 -0.11948198E-05  0.63710630E-06  0.36876871E-06  0.41389509E-06 -0.12788608E-05
  0.13354307E-05 -0.53222005E-06 -0.20295149E-06  0.13034948E-05 -0.17269858E-05
  0.21517336E-05  0.44742470E-06  0.84662050E-06 -0.92263996E-06 -0.19529284E-06
 -0.17606377E-06 -0.23015597E-06  0.93249339E-06  0.93348095E-07 -0.46221298E-06
  0.12121628E-05  0.90666687E-06 -0.82031043E-06  0.13298967E-05 -0.28824201E-06
 -0.25806202E-05  0.40312102E-06 -0.53966147E-06  0.49759702E-06 -0.16877172E-06
  0.80700638E-06 -0.20988694E-06  0.12101621E-05  0.11123506E-05  0.27791933E-05
  0.30351290E-05 -0.82000463E-06 -0.12960852E-05  0.64503280E-06  0.51197667E-06
  0.86301058E-06  0.14090151E-05  0.53778818E-06 -0.19812453E-04  0.36287428E-04
  0.23828278E-04  0.23021164E-04 -0.22844427E-04  0.47699126E-04 -0.13762368E-05
 -0.50924799E-05 -0.20045740E-04 -0.31917493E-05 -0.77761564E-06 -0.73821698E-06
 -0.55375176E-05  0.29835851E-05  0.31711109E-05 -0.20792351E-06 -0.20677804E-05
  0.64888063E-06  0.92054830E-05 -0.54424732E-05 -0.82909422E-05 -0.43441334E-04
  0.13499115E-04  0.29055941E-04  0.13761664E-05 -0.16181896E-04 -0.32103917E-04

 -0.11324016E-05 -0.26472898E-05  0.13704773E-05 -0.30894389E-06  0.33015738E-05
 -0.98500340E-06  0.13429559E-05 -0.14280517E-05  0.38459567E-06 -0.86704751E-06
  0.38010590E-05  0.51255182E-06  0.96724181E-06 -0.25233824E-05  0.11377732E-05
 -0.18883091E-05  0.33708197E-06 -0.10589892E-06  0.61527099E-04  0.97542106E-05
  0.12608172E-05  0.60256588E-04 -0.10894209E-04 -0.99089373E-05 -0.28014793E-04
 -0.13116982E-04  0.14747465E-04  0.41260186E-06 -0.11008199E-05 -0.12774380E-05
  0.15042565E-05 -0.17199985E-05 -0.12496959E-05 -0.62910084E-06 -0.12433890E-05
 -0.25081133E-05  0.20392400E-04  0.15513576E-04 -0.13803060E-05  0.41276420E-04
 -0.47169944E-04  0.35919035E-05  0.17929796E-04  0.36215929E-04  0.19778450E-04
 -0.10538549E-05  0.57814345E-05  0.46177247E-06 -0.49740648E-06 -0.82474043E-05
  0.33998178E-05 -0.18044950E-05 -0.12207119E-05  0.71470597E-06  0.73897041E-06
 -0.87470313E-06 -0.13360734E-05  0.15141862E-05  0.15528749E-05  0.13696955E-05
  0.22772036E-05 -0.66443910E-06 -0.26323611E-05  0.47027781E-06  0.30669521E-05
 -0.12470357E-05 -0.99475118E-05  0.39973595E-04 -0.68417870E-05  0.23284622E-06
  0.77695305E-06  0.19245058E-05 -0.98099690E-06 -0.65582605E-06  0.54741844E-07
  0.24127465E-05 -0.56111607E-05  0.10143715E-05 -0.79501340E-06  0.64560269E-06
 -0.98349685E-06 -0.17958182E-05  0.63358199E-06  0.62887871E-06  0.15515347E-05
 -0.43525825E-05  0.23193565E-05 -0.88764009E-06 -0.99893778E-06  0.12339908E-05
 -0.63690326E-05  0.42827840E-04 -0.44091588E-05  0.90706372E-05 -0.41934973E-05
  0.22977642E-04  0.82787630E-06 -0.40535818E-06 -0.77844237E-05  0.14166900E-06
 -0.20451503E-05  0.19003059E-07  0.20194679E-05 -0.14447099E-05  0.11424056E-06
  0.14330962E-06  0.99502426E-06 -0.27348341E-05  0.33369367E-04 -0.19392746E-04
 -0.97800448E-05 -0.41198619E-04  0.33812645E-04  0.10736419E-04  0.24845832E-05
 -0.30428726E-05 -0.13908833E-04 -0.86899530E-06 -0.15552473E-05 -0.24732984E-05
  0.18560658E-05 -0.15051471E-05  0.32631208E-06  0.76822614E-06  0.88751829E-06
  0.29438992E-05  0.49103326E-05 -0.96720906E-05  0.28401314E-04 -0.95091570E-05
  0.10067386E-04 -0.14548586E-04  0.18246418E-04  0.21941776E-04  0.29573905E-04
  0.14309804E-05  0.70927802E-06 -0.56093798E-06  0.77575760E-06 -0.16440067E-05
  0.54547160E-06 -0.52907997E-06  0.32919519E-06 -0.62967438E-06 -0.68764100E-06
  0.13969077E-04  0.14413428E-05  0.58498064E-05  0.28627145E-04 -0.34296587E-05
  0.56450473E-06 -0.61594144E-05  0.56684665E-05 -0.32283660E-06  0.16300453E-05
  0.14296874E-05 -0.20229941E-06 -0.15275042E-05  0.21001498E-05  0.12439263E-05
 -0.56129165E-06  0.11086660E-05 -0.13370623E-06 -0.32388375E-05  0.94370494E-06
  0.27249265E-06  0.89721007E-06 -0.29771461E-06  0.11019049E-06  0.20943999E-05
 -0.54198479E-06  0.39456291E-06 -0.19252914E-05 -0.58923146E-06  0.70088563E-06
 -0.25961026E-05  0.15986572E-05  0.14726768E-06 -0.75595342E-06 -0.66877243E-06
  0.63386903E-07  0.36129365E-05 -0.17022109E-05 -0.15691043E-06  0.92060412E-05
 -0.12482940E-05  0.12366467E-05 -0.44606676E-06  0.94257446E-06 -0.82134307E-06
 -0.17108607E-05 -0.15332313E-05 -0.65491864E-07  0.62861465E-06 -0.39621147E-06
 -0.19094343E-06 -0.24073883E-06  0.54359711E-06  0.39046440E-05  0.88534972E-05
  0.13377609E-04 -0.12840309E-04  0.92714227E-05 -0.16831896E-04  0.39636340E-06
 -0.73754546E-06  0.21914371E-04  0.10171261E-05  0.19269839E-05  0.12506613E-05
  0.22212052E-05 -0.17454667E-06  0.29733821E-05  0.34128757E-05  0.77965000E-06
  0.24484548E-05 -0.14859524E-05 -0.25577741E-06 -0.31083901E-04  0.26491523E-04
 -0.34948772E-04  0.26644863E-05 -0.10244307E-04  0.27703958E-04  0.54116838E-05

  0.39231710E-06  0.84862828E-06 -0.31550691E-05  0.35786350E-06  0.14234436E-05
 -0.12340432E-05  0.12024869E-06  0.46483303E-06  0.17826349E-05 -0.60965345E-07
  0.34645775E-05  0.51463019E-05  0.13004491E-05  0.10741388E-05 -0.31190748E-05
  0.73180952E-06  0.62541271E-06  0.34023477E-06  0.53122128E-05  0.21370294E-04
  0.30210654E-04  0.54730483E-04 -0.45625971E-04 -0.98925383E-06 -0.21455136E-04
 -0.58599115E-06  0.48281435E-05 -0.43409292E-06  0.49654698E-06  0.39389423E-05
 -0.60868065E-06 -0.13054016E-05  0.53366071E-05 -0.84438715E-07  0.38467280E-07
  0.12874175E-05 -0.12613583E-04  0.29284109E-05 -0.72586748E-05 -0.71002494E-05
 -0.12465530E-04  0.19088894E-04 -0.11774299E-04 -0.76059268E-07 -0.12733240E-04
  0.11878706E-05 -0.12152623E-05  0.76831726E-06  0.15933700E-05  0.25379178E-05
 -0.30001303E-05  0.67422526E-06  0.23769924E-06 -0.18464435E-05 -0.21692597E-05
 -0.47773324E-06  0.65317189E-05  0.13910229E-05  0.26734834E-05 -0.28480302E-05
 -0.23119691E-05  0.47502670E-05  0.56295469E-05 -0.35007780E-06 -0.57859160E-06
  0.36229759E-05 -0.98845795E-05 -0.68417870E-05  0.31473697E-04  0.20724870E-06
  0.25395792E-05  0.21317067E-06  0.19661081E-06 -0.83833484E-06  0.13445711E-06
  0.84413050E-06  0.13627864E-05 -0.21557680E-05  0.38671493E-07 -0.12412158E-05
  0.91173922E-06  0.33206707E-05 -0.18118392E-05 -0.21963479E-05  0.10938993E-05
  0.20430942E-06 -0.62998321E-05 -0.14789590E-06 -0.10921913E-05 -0.32049596E-06
 -0.52511373E-05  0.88146158E-05 -0.42742444E-04  0.25069600E-04  0.34784932E-05
 -0.80314569E-04 -0.17319763E-05 -0.37949796E-05  0.11733231E-04  0.13042964E-05
  0.14389527E-06 -0.15320891E-06  0.14273031E-06  0.31672738E-06  0.13424361E-05
 -0.46200101E-06  0.39133567E-06 -0.15617619E-05 -0.18824020E-04 -0.64840613E-05
  0.48757225E-05  0.30512452E-04 -0.86899707E-05 -0.16602190E-04  0.28985458E-05
  0.12951711E-04 -0.23662375E-05  0.98837708E-07 -0.10356990E-05 -0.26120125E-05
 -0.73000123E-06  0.21885344E-05 -0.21255988E-07  0.28119684E-06  0.68729869E-06
  0.42280896E-06 -0.29071145E-04  0.16785098E-04 -0.17995298E-04  0.14947984E-04
 -0.58069695E-05  0.15416728E-04 -0.14086714E-04 -0.48133173E-05  0.21127954E-04
 -0.65691020E-06 -0.19588426E-06  0.62893631E-06  0.91831547E-06 -0.85150432E-06
  0.26777377E-06  0.12823956E-05 -0.14675081E-05 -0.14378173E-05  0.46796462E-05
  0.98490805E-05  0.24127433E-05  0.42593977E-05  0.19926507E-05  0.70012197E-05
  0.13465749E-05  0.14633794E-04  0.17436054E-04  0.90601053E-06 -0.26323126E-06
 -0.19940359E-05  0.65113477E-06  0.99908858E-06  0.48985923E-06 -0.25819802E-06
  0.89755807E-06 -0.28407198E-06  0.43245533E-06  0.38176449E-06  0.25829947E-05
  0.50064007E-06 -0.12706049E-06 -0.20942328E-05  0.10974457E-05 -0.10355521E-05
 -0.38911923E-06 -0.10655357E-05  0.92666054E-07  0.43791443E-06  0.12160597E-05
  0.19826835E-05 -0.10734631E-05  0.14634575E-06 -0.42062928E-06  0.61601135E-06
  0.12524394E-06 -0.16179859E-05  0.21519026E-05  0.18310439E-05 -0.95621951E-06
 -0.37240839E-05 -0.28410693E-06  0.44325709E-06 -0.87524035E-06  0.73347229E-06
  0.19406928E-05  0.73217498E-07  0.25884444E-08  0.15438071E-05  0.50746531E-06
  0.16233426E-06 -0.23077908E-05  0.12459442E-05  0.51919308E-05  0.15159945E-05
  0.27010309E-04  0.31636498E-04 -0.13300355E-06 -0.10889030E-03  0.14046357E-05
 -0.49070955E-05 -0.30083203E-04  0.14375652E-05 -0.90546068E-06  0.33278576E-06
  0.29962159E-05  0.18440365E-05 -0.61779856E-05  0.44726218E-07  0.25689526E-06
 -0.92583954E-06  0.74151414E-06  0.15435454E-05  0.37536131E-04  0.40146912E-04
 -0.18375709E-05 -0.14126594E-04  0.38766598E-05 -0.11517578E-04 -0.94880424E-05

  0.90123666E-06  0.29581334E-06 -0.27872540E-06 -0.18218789E-06 -0.17972815E-05
  0.50119134E-06 -0.44758767E-06 -0.23718700E-06 -0.45676204E-06 -0.20279665E-06
 -0.13809061E-05 -0.95991681E-06 -0.28391123E-06  0.60368683E-06 -0.27653387E-06
 -0.74340777E-07 -0.37230253E-06 -0.13775245E-05 -0.15118398E-04 -0.11124448E-04
  0.74876428E-05  0.29448395E-04  0.30774128E-05 -0.26525189E-04 -0.12962713E-04
  0.34369139E-05  0.46421299E-06  0.15436610E-05  0.69634158E-06 -0.26415488E-06
 -0.76507167E-06  0.12567465E-05  0.68738087E-07 -0.69708850E-06 -0.28771645E-06
 -0.59420829E-06 -0.13199905E-04 -0.10874034E-04 -0.66140263E-05  0.60640132E-05
  0.23190316E-04 -0.41870172E-05 -0.73805211E-05 -0.14921677E-05  0.71094993E-05
  0.12574982E-05 -0.89708800E-06  0.27117196E-06 -0.11988308E-05 -0.56827160E-06
  0.20521670E-06 -0.29224195E-06 -0.84242367E-07  0.55837317E-06  0.66790196E-07
  0.49689046E-06  0.83335158E-07  0.82157976E-06 -0.52145573E-07 -0.16795314E-05
  0.43845464E-06  0.42291975E-07  0.65001345E-07 -0.51537753E-06 -0.24685213E-06
 -0.52199390E-06  0.41399270E-06  0.23284622E-06  0.20724870E-06  0.13959156E-04
  0.51281950E-06  0.20404042E-05  0.42327470E-06  0.69233057E-06  0.38569002E-06
  0.68055060E-06 -0.11044720E-05 -0.10208841E-05  0.30002817E-07  0.87387155E-06
 -0.61852446E-06  0.32856507E-06  0.67855100E-06  0.10318131E-05 -0.34063513E-06
  0.86295695E-06  0.45583941E-07 -0.20359940E-06 -0.26948861E-06  0.69534851E-06
 -0.46272365E-06 -0.67987802E-05  0.19479894E-05  0.15575274E-05 -0.23784554E-05
 -0.57871675E-05 -0.34718943E-05  0.42772044E-05  0.26851996E-05  0.23533497E-06
  0.58145621E-06  0.82669031E-06  0.20290292E-05 -0.11017998E-05 -0.10475902E-05
 -0.79649515E-06 -0.62058672E-06 -0.74643674E-06 -0.26341429E-05  0.20551531E-05
  0.11531066E-04 -0.35235239E-04 -0.79644223E-05  0.24749590E-04 -0.15843525E-04
 -0.22669039E-04  0.18184251E-04  0.85809079E-06 -0.91462772E-06 -0.42210967E-06
  0.66333765E-06 -0.62436021E-07  0.41915710E-06 -0.54119775E-06  0.76157970E-06
  0.76285080E-06  0.93813584E-06  0.90480888E-05  0.79420937E-06 -0.16494654E-04
  0.57529480E-05 -0.74584723E-05  0.26924562E-05 -0.27029978E-05  0.35736047E-05
  0.57896462E-06 -0.67138595E-06 -0.11735952E-06  0.11134320E-06  0.13526665E-05
 -0.55469974E-07 -0.21473150E-06 -0.64736775E-06 -0.17173477E-06 -0.47385024E-05
 -0.11903641E-04  0.44645458E-05 -0.54003226E-05  0.12154526E-05  0.23345414E-05
 -0.29157524E-05 -0.77068829E-05 -0.12992560E-04 -0.10119959E-05  0.61459125E-06
 -0.45306237E-06 -0.44016639E-06 -0.72009100E-06  0.99021577E-06 -0.12441856E-06
 -0.96621469E-07 -0.48713639E-06  0.32029734E-06  0.92801476E-06 -0.60927823E-06
 -0.13127428E-05  0.87553581E-06  0.14846106E-06 -0.66865004E-06 -0.50804687E-06
  0.92920455E-07 -0.35198804E-06 -0.34757395E-06  0.53112178E-07 -0.28834481E-06
 -0.59261271E-06 -0.34547132E-06 -0.74426075E-06  0.22696364E-06  0.24240676E-06
  0.19443016E-06 -0.24309500E-05  0.23694868E-06 -0.32866850E-06  0.11978034E-05
 -0.90445135E-07  0.27165283E-06 -0.12727592E-06 -0.10803279E-06  0.66341282E-06
 -0.66932104E-07  0.66522912E-06  0.11490227E-05 -0.24860587E-05  0.43214270E-07
 -0.45908848E-06  0.38355159E-06  0.14226421E-05 -0.48995132E-05  0.51891279E-05
  0.67013676E-06 -0.70170933E-05 -0.27979353E-04  0.50984132E-04 -0.45994629E-05
 -0.11534764E-04  0.66798501E-05  0.29497161E-06 -0.56738636E-06  0.24688553E-06
  0.23444213E-06  0.23089817E-05 -0.85163300E-06  0.31953484E-06 -0.52531844E-07
 -0.26569689E-06 -0.30036409E-05  0.15431920E-05  0.96573803E-05  0.10772055E-04
 -0.15936191E-04 -0.57440788E-05  0.44114119E-05 -0.20919038E-05  0.15558063E-04

 -0.46788603E-06  0.56288563E-06  0.80520747E-06 -0.63507688E-06  0.65288872E-06
  0.70667556E-06  0.59467954E-06 -0.96229353E-06  0.83340285E-06 -0.60865706E-06
  0.51286004E-06 -0.71116441E-06 -0.71472775E-06  0.71360695E-06 -0.49790931E-06
 -0.61274398E-06  0.81826484E-07  0.42025609E-06  0.14408896E-04  0.11299210E-04
  0.81165679E-05 -0.15746738E-04  0.13193573E-04  0.29471754E-05  0.17197238E-04
 -0.11708694E-04 -0.11372252E-04  0.11623757E-05  0.41823498E-06 -0.54672721E-06
 -0.95558863E-06  0.12754250E-06  0.14838765E-05 -0.56503917E-07 -0.78884358E-06
 -0.59998170E-06 -0.36609802E-05 -0.28568673E-05 -0.20086190E-04 -0.84078962E-05
  0.25602926E-05  0.18898252E-04 -0.23848794E-05  0.75019603E-05  0.15479362E-04
 -0.80012695E-06 -0.43521096E-07  0.15879139E-05  0.99450563E-06 -0.36317801E-06
  0.37363955E-06  0.73593552E-06  0.13465275E-06 -0.93705421E-07 -0.90044890E-06
  0.25586610E-05 -0.33887549E-05 -0.39268181E-05 -0.65968663E-06  0.39938539E-05
 -0.71473507E-06 -0.88674073E-06 -0.27590310E-05  0.33985981E-06  0.49181683E-06
 -0.13177234E-05  0.23395527E-05  0.77695305E-06  0.25395792E-05  0.51281950E-06
  0.13823575E-04  0.11797877E-05 -0.18060174E-07 -0.10783146E-05  0.58444066E-06
 -0.16731619E-07 -0.22626506E-06 -0.11506645E-05  0.36824921E-06 -0.15069210E-05
 -0.19377924E-06 -0.51916915E-06 -0.28111350E-06  0.12036486E-06  0.35018764E-06
  0.36893786E-06  0.17176413E-06  0.17132668E-06 -0.18913768E-05 -0.25259750E-06
 -0.10537656E-05  0.77960032E-05 -0.15925533E-04  0.26744534E-08  0.50980632E-06
 -0.12570378E-04  0.60730925E-06 -0.21458527E-04 -0.81083892E-05  0.53302939E-06
  0.85649147E-06  0.10058121E-05  0.10579458E-05  0.60850043E-06 -0.18574101E-06
 -0.52090215E-06  0.32077892E-08 -0.15340366E-06  0.96463677E-05  0.42254500E-06
 -0.33693535E-05  0.42422458E-05 -0.21985694E-05  0.80151339E-05 -0.18964913E-05
  0.10237116E-04  0.76832388E-05  0.12314697E-05 -0.81617950E-06 -0.43620096E-06
 -0.89590328E-06 -0.78296570E-06  0.19678949E-05 -0.61079437E-06  0.10359303E-05
  0.13087435E-05  0.51562092E-05  0.27994414E-04 -0.78140915E-05 -0.12682905E-04
  0.25621080E-04  0.24528044E-05 -0.17783336E-04 -0.79384435E-06  0.11721056E-04
  0.58377109E-06 -0.38580029E-07 -0.61694976E-06  0.12750645E-05  0.14345542E-06
 -0.18910857E-05 -0.45698157E-06 -0.46994457E-06  0.26946169E-06  0.51393822E-05
  0.95614972E-05  0.11369482E-04 -0.85763006E-05 -0.94207171E-06  0.31607639E-04
  0.94758495E-05 -0.75296787E-05 -0.44470519E-05 -0.11970430E-05 -0.53026226E-07
  0.17062619E-05  0.75693268E-06 -0.41613587E-06  0.11924606E-05 -0.65837476E-06
 -0.76337730E-08 -0.92016933E-06  0.24808046E-06 -0.30927867E-06 -0.81079477E-06
 -0.10762972E-06  0.91224160E-06 -0.87875567E-06 -0.33718105E-06 -0.13435630E-05
  0.11449383E-05 -0.47510499E-06  0.87049661E-06 -0.98640930E-06  0.15157270E-05
 -0.11474304E-05 -0.76283602E-06 -0.63375033E-06 -0.67074201E-06 -0.53351877E-06
 -0.44614550E-06  0.15527012E-06 -0.59408022E-06  0.31338746E-06  0.16524529E-06
  0.78037451E-06  0.17325886E-06 -0.11054227E-05  0.34486367E-08  0.35931944E-07
  0.17180968E-05  0.12761505E-05  0.10032112E-05 -0.13129077E-07 -0.22710020E-05
  0.11802225E-06 -0.63298614E-06  0.26043507E-06 -0.16501930E-05  0.17166423E-04
  0.25108067E-04  0.17076671E-04 -0.10204748E-04 -0.31397807E-04 -0.76154385E-05
 -0.22666081E-05  0.42657799E-05  0.56348914E-08 -0.42358357E-06  0.82229179E-06
 -0.18294539E-05  0.50681396E-06  0.22558196E-06  0.11167639E-05 -0.17360072E-05
  0.75287968E-06  0.11139585E-04  0.94385414E-05 -0.26801705E-04  0.12016778E-04
  0.11524985E-05 -0.16881914E-04  0.19171331E-06 -0.13450125E-05  0.52280068E-05

  0.38434600E-07  0.11610601E-06 -0.48452196E-06  0.23375857E-07 -0.13366789E-05
  0.13335686E-05 -0.58350540E-06 -0.11840118E-05 -0.15024173E-06 -0.52477903E-06
  0.20507319E-05 -0.11459008E-05 -0.95260662E-06  0.20517825E-06 -0.16187062E-07
 -0.16219722E-05 -0.44158681E-06  0.56214912E-06  0.23990903E-04  0.93775167E-05
  0.42708424E-05  0.17163076E-05  0.13460981E-04  0.20140550E-04 -0.43061963E-05
 -0.11438341E-04 -0.21521181E-04  0.17018095E-06 -0.12449354E-05  0.65725147E-07
 -0.40107670E-06 -0.15071819E-05  0.26323652E-05 -0.20402020E-06  0.45389765E-06
 -0.23785235E-05  0.43061283E-05 -0.75920517E-06 -0.14210440E-04  0.43452389E-05
 -0.49377573E-06 -0.63614812E-05 -0.39193345E-05  0.57582567E-05  0.10199616E-04
 -0.24438691E-07  0.11364452E-07  0.22014420E-06  0.98115628E-07  0.11117610E-05
 -0.16701713E-05  0.24361068E-06 -0.39747883E-06 -0.90069746E-06  0.33729776E-06
 -0.10980418E-06 -0.99963183E-06 -0.12490454E-05 -0.23195693E-05  0.69842949E-05
 -0.59875354E-07 -0.27010712E-05 -0.10603398E-06  0.53170909E-07 -0.18805999E-06
 -0.85209556E-06  0.57771366E-06  0.19245058E-05  0.21317067E-06  0.20404042E-05
  0.11797877E-05  0.18219215E-04  0.65868230E-06  0.35849578E-06 -0.37968342E-07
  0.11175017E-05  0.82580983E-06 -0.99074508E-06  0.34000616E-06 -0.46029706E-06
 -0.19617923E-05 -0.21892049E-06  0.13069019E-05  0.22541998E-05  0.12083413E-06
 -0.24015575E-06  0.11559779E-05  0.41413738E-06  0.61629148E-06  0.22358397E-06
 -0.10990696E-05 -0.11287032E-04  0.33657455E-05 -0.13867663E-05 -0.17177256E-05
  0.11696164E-04  0.16454026E-06 -0.39287033E-05 -0.40018412E-05  0.16254307E-06
  0.24362150E-06 -0.49609852E-06  0.61310227E-06 -0.21257642E-05  0.26153236E-06
 -0.36554088E-06 -0.99666986E-06  0.13813498E-05 -0.35233440E-06 -0.12876910E-04
  0.49976296E-05 -0.11553578E-04 -0.96007554E-05  0.20765466E-04  0.25632736E-05
 -0.12645755E-04  0.12411250E-04  0.49790918E-06 -0.17419220E-05  0.11223875E-05
  0.75977911E-06 -0.25787571E-06  0.34141022E-06 -0.29635845E-06  0.19171947E-05
  0.45249211E-06 -0.85223954E-05  0.21056333E-04  0.24720696E-04  0.22723326E-05
  0.21272290E-04 -0.30994669E-04 -0.10710239E-04 -0.96993217E-05  0.50857115E-05
  0.21375116E-07 -0.15711460E-05  0.10424493E-05 -0.21424345E-06  0.27391765E-06
 -0.14371548E-05 -0.38382566E-06  0.16168705E-06  0.54119488E-06 -0.17888188E-05
 -0.88536673E-05  0.19045460E-05  0.13000274E-05 -0.72808894E-06 -0.12815861E-04
 -0.21463847E-05 -0.19015038E-05 -0.13276123E-04 -0.75054991E-06  0.13705466E-05
 -0.20070606E-06 -0.21880070E-06  0.13479769E-06 -0.90229523E-07 -0.16019093E-07
  0.56434528E-06 -0.14895964E-05 -0.58988114E-06 -0.16595134E-06  0.78744016E-06
 -0.19834706E-07  0.12312586E-06 -0.11458964E-05 -0.50437231E-07  0.43897188E-06
  0.85911758E-08 -0.13712313E-06 -0.18679542E-06  0.51229322E-07  0.26350818E-06
 -0.42300858E-06  0.96031917E-06  0.23339999E-06 -0.50810518E-06 -0.10231418E-05
  0.21141459E-06  0.33789828E-06  0.65823866E-07 -0.13926185E-06  0.14656257E-05
 -0.11968633E-05 -0.18075092E-06  0.65587411E-06  0.95948996E-06  0.32748044E-06
  0.13765882E-05 -0.34862228E-06  0.60968785E-06 -0.39177131E-06  0.46459331E-07
  0.22392537E-06  0.40108433E-06  0.63783341E-06  0.36586363E-05  0.20570184E-05
 -0.18786942E-05  0.92088000E-06 -0.15424313E-04  0.74773487E-04 -0.12666706E-04
 -0.23527407E-04  0.44511990E-04  0.45527311E-06 -0.74120875E-06  0.13760234E-06
  0.34998767E-08  0.99775234E-06 -0.16087336E-06  0.48078274E-06 -0.10329909E-06
  0.30278621E-06  0.10903853E-04 -0.17973871E-05 -0.13330727E-05  0.12329772E-04
 -0.16374320E-04  0.89821882E-05  0.18597596E-04 -0.10140538E-04  0.65518074E-05

  0.91978792E-06  0.12894935E-05  0.84875757E-06  0.15676547E-05 -0.26123119E-05
  0.13627512E-05  0.40254000E-07 -0.59470254E-06  0.94317756E-07  0.14723718E-05
  0.10392332E-05 -0.65717338E-07 -0.90514006E-07  0.80889150E-06  0.13234392E-05
 -0.20743857E-07  0.90781919E-07  0.99046244E-07  0.13924424E-04  0.22741155E-04
 -0.31115468E-05 -0.42655264E-04  0.21712585E-04  0.43463214E-05 -0.68540300E-05
 -0.14185186E-04 -0.66032497E-05 -0.77823145E-06  0.40459973E-06  0.25406266E-05
  0.17929040E-05 -0.10478085E-05 -0.22935622E-06  0.27720913E-05  0.94697610E-06
  0.11639431E-05 -0.42304548E-05 -0.33178059E-05 -0.57607300E-05 -0.69677635E-05
  0.21279106E-05  0.21830746E-04 -0.78327302E-05 -0.15072796E-06  0.31057533E-05
 -0.20406266E-05  0.64898033E-06 -0.22761731E-05 -0.16884211E-05  0.29807660E-05
 -0.73701936E-06  0.11103188E-05  0.19235379E-05 -0.22419406E-06  0.31926303E-06
  0.28954160E-05  0.12344618E-05  0.64657537E-06 -0.31791902E-05 -0.39175052E-06
 -0.19511769E-06 -0.42533090E-06  0.44463183E-06 -0.92195259E-06 -0.53938695E-07
  0.15864381E-06  0.63678750E-06 -0.98099690E-06  0.19661081E-06  0.42327470E-06
 -0.18060174E-07  0.65868230E-06  0.25591638E-04  0.14969485E-05  0.14497153E-05
 -0.29348715E-06 -0.11767740E-05 -0.36807129E-07  0.83915280E-06 -0.71108892E-06
  0.47519189E-06 -0.73748698E-06  0.96391284E-06  0.22595238E-05 -0.68600350E-06
  0.13294768E-05 -0.64990647E-06 -0.16784893E-05 -0.76969808E-06 -0.55506220E-06
 -0.25795372E-05 -0.93681040E-05  0.11578883E-04 -0.20155634E-04  0.84961419E-06
  0.23566780E-04  0.77694788E-05 -0.11075084E-04 -0.19164501E-05 -0.29069299E-05
 -0.39630174E-06 -0.57344213E-06  0.24885435E-05 -0.35084150E-06  0.19902618E-06
  0.36004451E-06  0.19490043E-05 -0.19495226E-06  0.11713106E-04 -0.10493819E-04
 -0.34720740E-05  0.30032092E-04 -0.24562342E-04  0.26571349E-04  0.84447364E-05
  0.62438087E-05 -0.15363083E-04 -0.12516779E-05  0.33601729E-06  0.55900980E-06
 -0.21215395E-05  0.63964591E-06  0.19646609E-06  0.10121240E-05 -0.11912501E-05
  0.75560288E-06 -0.65623010E-05 -0.36903233E-05  0.12066247E-04  0.12117577E-04
 -0.30828193E-04  0.10677350E-04  0.13804606E-04 -0.28899426E-04  0.51709065E-05
 -0.34811979E-05  0.10973384E-05  0.65689427E-06  0.19660911E-05 -0.13027327E-06
 -0.51607289E-06 -0.19935994E-05  0.11975342E-05 -0.22787772E-06 -0.19808565E-06
  0.44155475E-05 -0.85122583E-05  0.67617837E-05  0.65575321E-05 -0.68604352E-05
  0.57492996E-05 -0.24585198E-06  0.85429817E-06  0.20528820E-06  0.13247933E-06
 -0.17487273E-05  0.62394910E-06 -0.12046052E-05  0.15785836E-05 -0.44520151E-06
 -0.58581861E-07 -0.81625781E-06  0.59710185E-06 -0.50808776E-06  0.40246021E-06
 -0.11050360E-05  0.11483667E-05 -0.70500967E-06 -0.13651826E-05  0.20155227E-06
  0.60862648E-06  0.72051731E-06  0.18464382E-06  0.11330813E-06  0.30659853E-05
  0.18785843E-06 -0.42198469E-06  0.33510337E-06  0.89155436E-06  0.33570443E-06
  0.89713354E-06 -0.27226374E-06 -0.50455058E-06 -0.62679186E-06 -0.92772346E-06
 -0.62725335E-06 -0.10818362E-05  0.21410948E-06 -0.65826070E-06  0.55047670E-06
 -0.82813158E-06 -0.29589435E-05 -0.10651280E-05 -0.31443814E-06 -0.16255749E-05
 -0.27005534E-06 -0.92122207E-06 -0.72667904E-06  0.48002100E-05 -0.31101988E-04
 -0.27552393E-04  0.33209011E-04 -0.13866994E-04  0.59978627E-07  0.14438621E-05
 -0.18508287E-04 -0.13305612E-04 -0.11427339E-06 -0.26249219E-06 -0.97899418E-06
  0.45743251E-06 -0.41637321E-06 -0.69501671E-06 -0.86382598E-06 -0.90402137E-07
 -0.57975043E-06  0.29253992E-05 -0.12521879E-04  0.27794853E-04  0.45409366E-04
 -0.12709893E-04 -0.20603673E-04 -0.30598191E-05 -0.50477584E-05  0.33010433E-05

 -0.42047416E-06  0.83630559E-06  0.22473679E-05  0.96119690E-06  0.91143416E-06
 -0.89354956E-06 -0.59000689E-06  0.53736355E-06  0.13303438E-05 -0.18984500E-05
  0.10833395E-05 -0.26501264E-07 -0.16124150E-05  0.13559474E-06  0.30274839E-05
  0.82350478E-06 -0.80893428E-06  0.12712712E-06 -0.96375104E-07  0.35915342E-04
 -0.16839219E-04  0.13247818E-04 -0.11688914E-04 -0.32319255E-04 -0.58140272E-04
 -0.14851413E-04  0.19052161E-04 -0.19601142E-05  0.47607322E-06 -0.58168849E-06
 -0.97197099E-06 -0.60074365E-05 -0.21110098E-05  0.21152282E-05 -0.39341061E-06
  0.61137464E-06 -0.53635031E-05 -0.11704297E-04 -0.79168281E-05 -0.16783825E-04
  0.49439640E-04 -0.73362960E-05 -0.19866730E-04 -0.79370298E-05 -0.29146695E-06
  0.11185023E-05  0.10772219E-05 -0.19412504E-06  0.12500842E-05  0.63655301E-06
 -0.61639470E-06  0.68478444E-07  0.65625332E-06  0.28146477E-05  0.39837368E-05
  0.15245355E-05 -0.17330215E-05  0.30153542E-06  0.10031740E-05 -0.61084083E-06
 -0.31199982E-05  0.13725650E-05  0.33689405E-05  0.51084913E-06 -0.21032526E-05
  0.89244971E-06  0.11773932E-05 -0.65582605E-06 -0.83833484E-06  0.69233057E-06
 -0.10783146E-05  0.35849578E-06  0.14969485E-05  0.45095591E-04  0.40585388E-06
 -0.49102153E-06  0.52581283E-05 -0.12950738E-05  0.72492084E-06  0.13319311E-09
 -0.13061087E-05 -0.20788848E-05 -0.64307495E-06  0.45467440E-05 -0.12572897E-05
 -0.58864523E-05  0.56680437E-05 -0.11546589E-05 -0.11763293E-05  0.41551529E-05
 -0.33717340E-05 -0.11410345E-04  0.35466185E-04 -0.30858352E-04  0.62934310E-05
  0.49769464E-04 -0.19520909E-04 -0.12469820E-04  0.53620345E-04  0.93121543E-06
 -0.49009361E-06  0.12891273E-05  0.13884466E-05  0.18083316E-05 -0.10098111E-05
  0.10129166E-05  0.60419961E-06 -0.31599690E-05  0.95773403E-05  0.52797107E-04
  0.30651408E-04 -0.48187503E-04  0.10247009E-03  0.24464389E-04 -0.48786947E-05
 -0.14285938E-05  0.20563373E-04  0.46534236E-06  0.84776845E-05 -0.23437674E-05
 -0.29659921E-06  0.50675179E-05 -0.80692523E-06 -0.53183975E-06 -0.93319324E-06
  0.79017791E-06  0.26274604E-04 -0.12927905E-06  0.78913648E-05 -0.60315206E-05
 -0.16623189E-04 -0.15882744E-04  0.30794591E-05  0.72330010E-05 -0.34419464E-05
 -0.77395489E-06 -0.63426028E-05  0.25760572E-05  0.76458692E-06  0.14318050E-05
  0.57756570E-06  0.23307463E-06 -0.82650394E-06  0.12017650E-05  0.15533463E-04
  0.19411105E-05  0.90988908E-05  0.97258942E-05 -0.51008806E-04 -0.11259143E-04
  0.12352992E-04  0.23275028E-05  0.23957356E-05 -0.95924794E-07  0.78845185E-06
 -0.71818544E-06 -0.19740417E-05  0.20094808E-05 -0.13011324E-05 -0.48872445E-06
 -0.51385312E-06 -0.85291646E-06 -0.30482688E-06 -0.88872938E-06 -0.21352178E-05
  0.14255542E-05 -0.11082079E-04  0.85145594E-06 -0.76353939E-06 -0.34235351E-06
 -0.81273135E-07 -0.22521663E-06  0.35964801E-05  0.12224269E-05  0.11231255E-05
 -0.41703722E-05  0.41172024E-06  0.31003126E-05  0.58838672E-06 -0.53352203E-06
 -0.10530720E-05  0.24628109E-05  0.14090315E-05  0.16568155E-06 -0.63294503E-07
 -0.15219243E-05 -0.99531118E-06  0.20021855E-05  0.97091180E-07 -0.19821288E-05
  0.79987500E-06  0.12854972E-05 -0.13807755E-05  0.16520143E-05 -0.33104999E-06
  0.34683040E-06 -0.11382130E-05 -0.17908617E-05  0.10006714E-04 -0.37993352E-04
  0.31007605E-04 -0.63349602E-05 -0.19589789E-05  0.20364582E-04 -0.20711960E-04
 -0.55487746E-04  0.33645193E-04 -0.17391132E-05  0.39746158E-06  0.31493808E-06
  0.10261543E-08  0.12952927E-05 -0.14994931E-06 -0.75229163E-06  0.70131289E-06
  0.33089684E-06 -0.44308911E-05 -0.30505379E-04  0.28682457E-04 -0.47293598E-04
  0.66396569E-05  0.59805488E-05  0.36997881E-05  0.14405483E-05  0.24027899E-05

 -0.39595249E-06  0.17490025E-06  0.88619834E-06  0.12351047E-06 -0.17757271E-05
  0.10518727E-05  0.14150866E-06  0.12258981E-05  0.49252764E-06 -0.41669794E-06
  0.14526083E-05  0.25956415E-05 -0.16176183E-07 -0.31774589E-06 -0.15080183E-06
 -0.24233342E-06  0.18468107E-05 -0.19926834E-05  0.12766854E-04  0.24965450E-04
 -0.34083943E-05 -0.39634452E-04 -0.22616987E-05  0.13755047E-04 -0.11626884E-04
 -0.17575921E-05 -0.12463368E-04  0.21641067E-05  0.17059017E-06  0.19199678E-05
  0.55588795E-06 -0.71892060E-06  0.24139008E-05  0.33365194E-07 -0.37945290E-06
  0.34548395E-05  0.31044167E-05 -0.49607258E-05 -0.32026535E-05  0.21525400E-04
 -0.63722734E-05  0.38677026E-04  0.27141236E-04  0.37067054E-04  0.22804580E-04
 -0.17436997E-05  0.14388217E-05 -0.15973896E-05  0.18094178E-05 -0.16691325E-05
  0.20274580E-05 -0.22899414E-06 -0.33637042E-06 -0.17511726E-05  0.33093436E-06
  0.10678755E-05  0.24286324E-05 -0.86991697E-06  0.22983762E-05 -0.36336797E-06
  0.84580158E-06 -0.54356061E-06  0.15386348E-05  0.21757422E-06 -0.67975708E-07
 -0.11003766E-05  0.10287472E-05  0.54741844E-07  0.13445711E-06  0.38569002E-06
  0.58444066E-06 -0.37968342E-07  0.14497153E-05  0.40585388E-06  0.37722763E-04
  0.54564327E-06 -0.77522669E-06 -0.85327292E-06  0.46667750E-06  0.76280899E-06
 -0.57590665E-06  0.60491124E-06  0.98816400E-06  0.12595725E-05 -0.26308951E-05
 -0.75914811E-08  0.43383264E-05 -0.13517066E-05 -0.59218527E-06  0.51764781E-05
 -0.49968358E-05  0.47632184E-04 -0.81856244E-05 -0.60658866E-05 -0.71611625E-05
  0.52235028E-04 -0.86093810E-05 -0.17059281E-05  0.16802459E-05  0.34123685E-06
 -0.72255814E-06 -0.21559050E-05  0.85520164E-06  0.16371455E-05 -0.10894762E-05
  0.41712742E-06  0.17221287E-05  0.36943788E-06 -0.36682795E-05  0.50431091E-07
 -0.16727987E-04  0.37374268E-05 -0.26492945E-05 -0.35315871E-04  0.18886229E-05
  0.54938586E-04 -0.22250230E-04 -0.41099788E-06 -0.12156684E-05 -0.90291443E-06
 -0.17638742E-05  0.30353082E-06  0.24297834E-05  0.17097389E-05 -0.13519523E-05
  0.14580022E-05  0.20801533E-04 -0.28187826E-04  0.31565581E-04 -0.34710143E-04
  0.18051280E-04 -0.57506530E-05  0.38975514E-05  0.16824425E-04  0.88727671E-05
  0.23396611E-07  0.12923745E-05 -0.57596354E-05 -0.19987252E-06  0.26981663E-06
  0.22039722E-05  0.51426886E-06  0.15819907E-05 -0.34120652E-05  0.37196600E-05
  0.80530094E-05 -0.18144009E-04  0.44919490E-05 -0.14343725E-05 -0.17373047E-04
 -0.30839103E-05  0.11550607E-06  0.81318340E-05 -0.21098827E-05 -0.19671282E-05
 -0.31969225E-06 -0.49766210E-06  0.13928634E-06  0.17450664E-05 -0.11674438E-05
  0.28305034E-05 -0.12044287E-05  0.92368812E-06 -0.57405873E-06 -0.12868891E-05
  0.93358815E-06 -0.38666620E-06 -0.37596257E-06  0.63831064E-06 -0.19167298E-05
  0.12433427E-05  0.30782411E-06 -0.81658613E-06 -0.35480938E-06  0.83694542E-06
  0.13000110E-05 -0.12122594E-05 -0.29847333E-06  0.42485862E-06  0.96073120E-06
 -0.10779387E-05 -0.18062565E-06  0.22171114E-05 -0.38715933E-07  0.10849748E-05
  0.10088186E-05 -0.51604697E-06 -0.10861849E-05  0.99147773E-06 -0.34464919E-05
  0.66377194E-06 -0.19520066E-05 -0.34209281E-05 -0.27943254E-06  0.21514289E-07
 -0.45492627E-06 -0.37933654E-05 -0.85931298E-06 -0.59330796E-05  0.20642058E-04
  0.39007874E-04 -0.10175562E-05 -0.91181612E-05 -0.24527566E-04 -0.20336147E-04
  0.20990708E-04 -0.22049353E-04 -0.81074355E-06  0.51361125E-07  0.96676275E-06
  0.65685477E-06 -0.10035914E-05  0.65445711E-06 -0.34936264E-06 -0.74569752E-06
 -0.11397910E-05  0.24978487E-04 -0.27405449E-05  0.11326299E-04 -0.21622991E-04
  0.61446718E-05  0.10147958E-05  0.13791667E-05 -0.11576115E-04 -0.48415779E-05

 -0.65079139E-06  0.19137860E-06  0.56500561E-06 -0.66127746E-06  0.36221632E-06
  0.98831238E-06  0.15133043E-05 -0.40817123E-06  0.11036555E-06  0.16666189E-05
  0.19448190E-05  0.14979886E-05  0.85953022E-06 -0.69990052E-06  0.14039108E-05
 -0.13899922E-05 -0.44692841E-06  0.15766330E-05  0.40479158E-04  0.33991002E-04
 -0.17473765E-05  0.46378589E-04 -0.35492882E-04  0.46682858E-05  0.17661835E-05
  0.10151596E-04  0.55950589E-05  0.81909056E-06 -0.21375932E-05  0.33381257E-06
 -0.27636839E-05  0.47716965E-06  0.19926579E-05 -0.23035043E-05 -0.50179689E-07
 -0.10113300E-05  0.41384790E-05  0.95085235E-06  0.74579952E-05 -0.22420938E-05
  0.83973402E-05  0.15781269E-04  0.77210603E-05  0.74713889E-05  0.12883894E-04
  0.10716908E-05  0.17995909E-06 -0.15308811E-05 -0.39000570E-05  0.13476257E-05
 -0.49555366E-07 -0.47392558E-06 -0.15097905E-05 -0.77103108E-06 -0.91752120E-06
 -0.99169003E-06  0.35089614E-07 -0.33814794E-05  0.18468245E-05  0.13150029E-05
  0.26879877E-05  0.16138638E-06 -0.23459266E-06 -0.47643112E-06  0.38554734E-06
  0.34390347E-06 -0.24662509E-05  0.24127465E-05  0.84413050E-06  0.68055060E-06
 -0.16731619E-07  0.11175017E-05 -0.29348715E-06 -0.49102153E-06  0.54564327E-06
  0.38596593E-04 -0.18325229E-04 -0.11924492E-04  0.54140356E-06  0.41436938E-05
 -0.77201284E-06 -0.29761506E-06  0.17770448E-05  0.29825715E-05 -0.36769669E-05
  0.25054440E-05  0.21036488E-05 -0.16451439E-05 -0.89342594E-06  0.57315564E-05
 -0.14059743E-04  0.19322569E-04  0.11062458E-04  0.57209116E-05  0.42430942E-05
  0.15807124E-04 -0.11898867E-04  0.34433167E-05  0.19216243E-04  0.89864362E-06
  0.58490008E-07 -0.70233223E-06 -0.17328699E-05  0.30224707E-05 -0.52776062E-06
 -0.87336674E-07 -0.69555442E-06 -0.95220270E-08  0.22687912E-04 -0.25587583E-04
 -0.18485283E-06  0.99095403E-04 -0.37172409E-04 -0.18175527E-04  0.83678173E-06
 -0.10620027E-04 -0.16288858E-04  0.16069997E-05 -0.32381687E-05 -0.20280674E-06
 -0.24944493E-05  0.26785806E-05  0.33160947E-05  0.12289982E-06 -0.57468302E-06
 -0.62620457E-06 -0.36146657E-04  0.79884930E-05  0.16108173E-05  0.38127994E-05
  0.14021444E-04 -0.52479090E-06 -0.18979282E-04 -0.21244022E-04  0.86636370E-05
 -0.11784742E-05  0.41384272E-06  0.13183881E-05 -0.15167462E-06 -0.89258727E-06
  0.22489065E-05 -0.26966935E-06  0.32736645E-06 -0.21047809E-05  0.25357986E-05
  0.70967538E-05  0.10993731E-04  0.26992701E-04  0.89376437E-05 -0.30959871E-04
 -0.10564987E-04  0.14546137E-04  0.46433472E-05  0.14474328E-05  0.15543491E-05
  0.11215669E-05 -0.58276852E-05  0.27346990E-05  0.91060214E-06 -0.21455872E-06
 -0.28059185E-05 -0.14415807E-05 -0.10921395E-05 -0.11688534E-05 -0.76969086E-06
 -0.22340426E-06  0.45603836E-05  0.34467177E-06  0.57414003E-06  0.10897816E-05
  0.17365532E-05 -0.21853009E-05  0.27325373E-06 -0.57630931E-08  0.30103415E-06
 -0.45897904E-07  0.14950356E-05  0.12421412E-06 -0.35676291E-06  0.63230677E-06
 -0.11444512E-05  0.12201600E-05 -0.15597276E-05 -0.29067861E-05  0.23087685E-05
  0.11238127E-05 -0.69488710E-06  0.33160124E-06  0.92804629E-06  0.97414032E-06
  0.28183472E-06 -0.88250576E-07  0.28848875E-06  0.12839406E-05  0.29148310E-06
  0.92259618E-06  0.30150566E-06  0.23627306E-05  0.60619412E-05  0.78322867E-05
  0.72887708E-05 -0.95462392E-05  0.72369723E-05  0.73994207E-04 -0.22401240E-04
 -0.33562081E-04  0.23552299E-04  0.14262328E-05  0.75389888E-06  0.43768440E-06
  0.12192948E-05 -0.45931206E-06  0.65692691E-06 -0.23317260E-07  0.33569345E-07
  0.83842773E-06  0.14958506E-04  0.13067080E-04 -0.14864785E-05  0.72061700E-04
 -0.24476942E-04 -0.61233610E-05 -0.50235748E-05  0.45404954E-05 -0.99466485E-06

 -0.13307390E-05 -0.26732297E-05 -0.62483864E-06  0.34303723E-06  0.49927823E-05
 -0.34192366E-05  0.12275419E-05  0.78857407E-06 -0.30975816E-06 -0.75510049E-06
 -0.22729662E-05 -0.23864825E-05  0.53396452E-06  0.39986567E-05 -0.43099090E-05
  0.26105384E-05  0.14763135E-05 -0.20101232E-05 -0.44559084E-04 -0.23270063E-05
 -0.10900122E-05  0.36892585E-04  0.43332400E-04 -0.26512578E-04  0.30350814E-04
 -0.20858246E-04 -0.21019425E-04 -0.21679865E-05 -0.98463212E-06 -0.14241221E-05
 -0.29082650E-06 -0.13808299E-05  0.26384646E-05  0.24028275E-05 -0.33152322E-06
  0.21735196E-05  0.13466552E-04  0.89625896E-05  0.19241454E-04  0.80959797E-05
  0.14356704E-05  0.28115316E-04  0.10293848E-04  0.37482444E-05  0.57164466E-05
  0.95426445E-07 -0.81556609E-06  0.24441977E-05  0.29366652E-05 -0.71167460E-05
  0.24318720E-05 -0.49313710E-06  0.13629970E-06  0.16146690E-05  0.33569718E-05
  0.38159707E-05 -0.28129718E-06  0.10466492E-06  0.58661047E-06  0.23232322E-05
 -0.37692741E-05  0.11479745E-05  0.28575102E-05  0.79917202E-06 -0.51391071E-06
  0.62633356E-06  0.20314054E-05 -0.56111607E-05  0.13627864E-05 -0.11044720E-05
 -0.22626506E-06  0.82580983E-06 -0.11767740E-05  0.52581283E-05 -0.77522669E-06
 -0.18325229E-04  0.67710424E-04 -0.11245244E-04  0.33933663E-05 -0.11125071E-05
  0.11865066E-05  0.14805498E-05  0.28772794E-05 -0.20318954E-05  0.61723283E-05
 -0.32125154E-05 -0.50515555E-05  0.14140835E-05  0.77646531E-06 -0.43500364E-05
 -0.83173172E-06 -0.46197031E-04 -0.41704178E-05  0.37840465E-04 -0.92989385E-04
 -0.56787770E-04 -0.43306964E-05  0.76754631E-06 -0.10613585E-04  0.70534368E-06
 -0.48926559E-05  0.62034542E-06  0.23838164E-05 -0.68363939E-05 -0.27281417E-06
  0.21280089E-05 -0.16979039E-05  0.48740116E-05 -0.46648554E-04  0.98056177E-04
 -0.70413079E-05 -0.66708064E-05  0.74342082E-04 -0.49456374E-04  0.28449259E-04
  0.13570713E-04 -0.12289596E-04  0.11896871E-05  0.79182802E-05  0.75284465E-06
  0.39410224E-05 -0.69498059E-05  0.75728593E-06 -0.92629640E-06  0.41808522E-06
  0.11622320E-05  0.87657387E-05  0.26581868E-04  0.34047942E-05 -0.33313094E-04
  0.76954624E-04  0.18448356E-04 -0.68859261E-05  0.31828515E-05 -0.21325714E-06
 -0.36284080E-06 -0.31017358E-05 -0.13944725E-06 -0.10200431E-05  0.47725151E-05
 -0.28854520E-05  0.13804330E-05 -0.22512855E-05  0.24848491E-05 -0.47591953E-05
 -0.20741090E-04  0.22544311E-05 -0.11791860E-04 -0.11048119E-04  0.94968508E-05
 -0.14976153E-04  0.32859395E-05  0.22794339E-05 -0.59237629E-06 -0.14633471E-05
 -0.20158994E-05  0.23468330E-05 -0.40698559E-05  0.29809965E-05 -0.90729588E-06
  0.16632998E-05 -0.99434082E-06  0.22064759E-05  0.87695343E-05  0.68760135E-06
  0.28155784E-05 -0.15005267E-04  0.31990531E-05  0.31314565E-07 -0.13913971E-05
 -0.11078243E-05 -0.72456171E-06  0.31188795E-06  0.13203188E-05 -0.10523826E-05
  0.51747920E-05 -0.99905007E-06  0.16400957E-05  0.80547028E-06 -0.94745870E-07
 -0.96441841E-07 -0.61832255E-06  0.15493732E-05  0.15450542E-05 -0.10764610E-04
  0.95676952E-06 -0.13149530E-06  0.11848680E-05 -0.29982943E-05 -0.32692292E-05
  0.10616261E-06  0.18703075E-05  0.28219761E-06 -0.46632844E-05  0.39104129E-05
 -0.42675362E-05 -0.21665363E-06 -0.18082009E-05  0.26452544E-04  0.20850903E-04
 -0.32449170E-04  0.15397443E-04 -0.67567775E-04  0.85388636E-04 -0.52671668E-04
 -0.46248119E-04  0.56277395E-04  0.44518774E-06 -0.31338290E-05  0.58955696E-06
 -0.26751530E-05  0.23746820E-05  0.68651687E-06 -0.27042347E-06 -0.86500307E-07
 -0.16139827E-05 -0.63529090E-05 -0.13799033E-05 -0.54452839E-05 -0.44987882E-04
 -0.18170242E-04  0.18013439E-05 -0.83387418E-05 -0.26029530E-04 -0.29151693E-05

  0.14537629E-05  0.90258842E-06  0.13363851E-05  0.56167962E-06 -0.78204305E-06
 -0.95576588E-06 -0.91862450E-06  0.29519726E-06 -0.58394245E-06 -0.70464315E-06
  0.60944918E-06  0.22535357E-05  0.45661559E-06 -0.21562228E-05  0.58817887E-05
 -0.18106350E-05  0.41050720E-06  0.31887603E-07  0.14401251E-04  0.46072372E-05
  0.22976403E-04 -0.23272713E-04 -0.73580984E-07  0.41972080E-04 -0.77502976E-05
 -0.39452432E-06  0.63606402E-05  0.86043661E-06  0.32018165E-06  0.23113399E-05
  0.36763815E-05  0.23173021E-05 -0.11840593E-04  0.88856238E-06  0.17435877E-06
  0.31998127E-06 -0.17211825E-04 -0.11460972E-04 -0.15873120E-04  0.36873763E-05
  0.22121016E-04 -0.53414177E-04  0.71709205E-05 -0.40163831E-05 -0.23146608E-04
 -0.13462340E-05  0.52053107E-06 -0.38238647E-06  0.84508164E-06  0.17495002E-05
 -0.23908341E-05  0.95884375E-06 -0.15731832E-05  0.99508777E-06 -0.57031760E-06
  0.20700681E-06 -0.40799495E-06  0.19972871E-05  0.15616899E-05 -0.55011351E-05
  0.81128431E-06  0.10154801E-05 -0.19869206E-05 -0.82991723E-06 -0.59230879E-06
 -0.49619192E-06  0.12122410E-05  0.10143715E-05 -0.21557680E-05 -0.10208841E-05
 -0.11506645E-05 -0.99074508E-06 -0.36807129E-07 -0.12950738E-05 -0.85327292E-06
 -0.11924492E-04 -0.11245244E-04  0.46855087E-04 -0.87611930E-06  0.49687217E-06
  0.39594963E-06  0.26471241E-06 -0.99058724E-06 -0.73606989E-05 -0.20965690E-05
 -0.32610411E-05  0.22795039E-05  0.16484520E-05 -0.92869276E-06 -0.63937595E-05
  0.32033465E-04 -0.16078388E-04 -0.42932062E-04 -0.11505090E-04  0.48523984E-04
  0.98308932E-05  0.65485847E-06  0.36831993E-04 -0.38037044E-04  0.62561199E-06
 -0.94429158E-07 -0.18073204E-05  0.10691320E-06  0.22474969E-05 -0.36163989E-06
 -0.48115830E-06  0.47438733E-06 -0.10061390E-05  0.12669759E-04 -0.64405405E-05
 -0.72848070E-05  0.15695610E-04 -0.23590697E-05 -0.40487781E-04 -0.11936413E-04
 -0.37078837E-04 -0.80023413E-05 -0.90112433E-06 -0.54625935E-06 -0.17400003E-05
  0.22255651E-05  0.85139048E-06 -0.82711896E-05  0.15345153E-07 -0.29221848E-06
 -0.26662238E-05  0.13781430E-04 -0.30938951E-04 -0.20543034E-04  0.31240519E-04
 -0.25031176E-04 -0.15998094E-05 -0.22459014E-05 -0.12366263E-04 -0.10686830E-04
 -0.12307709E-05  0.70983695E-06  0.22128564E-05  0.40555415E-06 -0.19593002E-05
  0.32819749E-05  0.31142412E-06 -0.15621036E-05  0.31472588E-05  0.99021675E-05
 -0.18710428E-04  0.10098397E-04  0.23030635E-05  0.11182248E-05 -0.25250001E-04
 -0.31810746E-05 -0.69627676E-05  0.22656607E-04  0.47379834E-06  0.45319675E-06
  0.68410846E-06  0.12888260E-05  0.27327278E-05 -0.31124220E-05 -0.72066602E-06
  0.30646858E-05  0.39513423E-05  0.40586580E-06 -0.48792865E-06  0.14085113E-05
  0.94754307E-06  0.19421782E-05 -0.13534902E-05 -0.21643229E-06  0.11486232E-06
 -0.22084518E-05 -0.57044018E-06 -0.31756206E-06 -0.18162615E-05  0.53331738E-06
  0.65052461E-06  0.17176826E-06 -0.10398031E-06  0.82023268E-07  0.41491051E-07
 -0.12908086E-06  0.12918828E-05  0.16085722E-05  0.29450860E-06  0.80779523E-06
 -0.20513100E-05 -0.60727039E-06 -0.10221311E-05  0.23863928E-05  0.33199111E-05
 -0.14220720E-05  0.20781061E-05 -0.10311578E-06  0.25639687E-05 -0.54336221E-06
  0.31265936E-05 -0.33528224E-07 -0.12717478E-05 -0.30360261E-04  0.11819551E-04
  0.45808908E-04  0.21583951E-04  0.17165719E-04 -0.12171087E-03  0.34343518E-04
  0.14862188E-04 -0.67144410E-05 -0.73090501E-06  0.67255822E-06  0.10726600E-05
  0.93234364E-06 -0.74895311E-06  0.18784983E-05 -0.95947008E-06  0.11341748E-05
 -0.48593038E-06  0.40801865E-05 -0.16629782E-04  0.98047486E-05 -0.24336834E-04
  0.15907881E-04  0.65015764E-05 -0.66747527E-05  0.21534021E-04 -0.94910598E-05

 -0.66410898E-06 -0.80955544E-07 -0.50403982E-06 -0.14171327E-06  0.12771734E-05
  0.30616053E-06  0.49126781E-06  0.12491176E-06  0.10961647E-05  0.16368019E-05
 -0.66313059E-06 -0.63111558E-06  0.12931605E-05  0.15211453E-05 -0.87078614E-06
 -0.67170617E-07  0.82666032E-09  0.40627950E-06 -0.88716419E-05  0.70320259E-05
 -0.26783106E-06 -0.35616077E-04  0.62916541E-04  0.75609027E-05  0.35411226E-04
  0.33019676E-05  0.53658559E-05  0.16197269E-05  0.91003675E-06 -0.80251925E-06
 -0.15356424E-05  0.26009230E-06  0.16121936E-05  0.33367206E-06 -0.97575914E-06
  0.22455906E-06 -0.12933561E-06  0.90134407E-05  0.47876755E-06  0.30391573E-05
  0.79364498E-05 -0.17146938E-05 -0.14200916E-04 -0.84221381E-05  0.22525862E-04
 -0.35608799E-06  0.69787898E-06 -0.58066142E-06 -0.33386586E-06  0.20479961E-05
 -0.55668698E-06 -0.43421832E-06 -0.11957163E-05 -0.36788188E-06 -0.65647947E-06
  0.37605768E-05 -0.14320398E-05  0.10795265E-05 -0.43220418E-05  0.20237671E-05
 -0.11301843E-05  0.18774789E-06  0.10886104E-05  0.16959695E-06  0.12120128E-06
  0.42905851E-06  0.67457227E-06 -0.79501340E-06  0.38671493E-07  0.30002817E-07
  0.36824921E-06  0.34000616E-06  0.83915280E-06  0.72492084E-06  0.46667750E-06
  0.54140356E-06  0.33933663E-05 -0.87611930E-06  0.21765423E-04 -0.35480758E-06
  0.19047088E-05  0.77275162E-06  0.29700748E-06 -0.11752469E-05  0.15762645E-05
  0.36559278E-06 -0.20315841E-07 -0.34593820E-06  0.29312805E-05  0.11665286E-05
 -0.65826737E-05  0.12059772E-04  0.23103727E-05  0.93106767E-05 -0.27816743E-04
 -0.33261538E-05 -0.98665157E-05  0.32311823E-05 -0.58348313E-05  0.10793288E-05
 -0.15806540E-05  0.78122067E-06 -0.77862768E-06  0.30256784E-05  0.25336597E-06
  0.36104766E-06  0.13838747E-06  0.20202028E-06 -0.25812661E-05  0.13398998E-04
 -0.74473816E-05  0.16546851E-04 -0.14994861E-04  0.10772191E-04  0.19158470E-04
 -0.20927091E-04  0.32355112E-05  0.12407859E-05 -0.48397691E-06 -0.69122650E-06
 -0.35625017E-06 -0.87839249E-06  0.94466269E-06 -0.10535840E-05  0.22353059E-06
  0.26217815E-06 -0.33225882E-05  0.85484882E-05 -0.83125317E-05  0.11107753E-04
  0.27282588E-04 -0.10521356E-04 -0.61157004E-05 -0.16054931E-04  0.58996484E-05
  0.57363390E-06  0.64538591E-06 -0.38255491E-06 -0.71280430E-06 -0.92722650E-09
  0.25336475E-06 -0.19566577E-05 -0.72511684E-07  0.33657933E-06 -0.17119818E-05
 -0.59052967E-05 -0.14729060E-05  0.17728271E-05  0.84083350E-05 -0.10701167E-05
  0.56228335E-05  0.10354609E-04  0.76735881E-05  0.37199420E-06  0.44308374E-06
  0.77724725E-06 -0.31865406E-06 -0.65410661E-06 -0.16446214E-05 -0.18690700E-05
 -0.46747443E-06 -0.10177353E-05  0.97600862E-06  0.69320092E-06  0.17852166E-06
  0.54961141E-06 -0.27020299E-05  0.55321471E-06 -0.13434183E-05 -0.47643723E-06
  0.14487315E-06  0.14745671E-06  0.39784364E-06  0.52284311E-06 -0.21154797E-06
  0.13072148E-05  0.43223869E-06 -0.76769266E-07  0.39272263E-06  0.81136169E-06
  0.23265003E-06 -0.17080089E-05  0.35673902E-06  0.18478145E-06  0.71416743E-07
 -0.33165736E-06 -0.24965885E-05 -0.16266316E-06 -0.10770640E-05 -0.81202832E-07
  0.21681888E-05 -0.31405340E-06 -0.40842780E-06 -0.14767813E-05  0.40316339E-07
  0.14606496E-06 -0.85671614E-06 -0.37815603E-06  0.42380341E-05 -0.40707250E-05
  0.44806896E-05  0.85982368E-05 -0.29766487E-04 -0.11285145E-04 -0.91759289E-05
  0.35970562E-05 -0.69135735E-05 -0.46936445E-07 -0.29572834E-06 -0.44679331E-06
 -0.62450375E-06  0.43833701E-06  0.32229801E-06 -0.60357406E-06 -0.67711192E-07
 -0.88305430E-06  0.10553280E-04  0.67531939E-05  0.13712474E-04  0.46982203E-04
 -0.13131832E-04 -0.15092041E-04 -0.50196399E-05  0.85929505E-05 -0.55366648E-05

  0.67982172E-07  0.37563417E-06  0.12120648E-05  0.49460034E-06 -0.13407287E-06
 -0.59171030E-08 -0.77695336E-06 -0.10443209E-05  0.17125568E-05  0.45759402E-06
 -0.69009522E-06  0.96056055E-06  0.49257448E-07 -0.49657809E-06  0.50988170E-06
 -0.43325069E-06  0.18688393E-05 -0.28643409E-05  0.76378673E-06 -0.13095170E-04
  0.11765903E-05  0.14258505E-04 -0.18276744E-04 -0.75357323E-05 -0.24001302E-05
  0.89433928E-05  0.59917250E-05  0.93671654E-06 -0.29549926E-06  0.90243080E-06
 -0.14062248E-06 -0.15876592E-06 -0.85523283E-07 -0.11009370E-06 -0.27996399E-05
  0.12194573E-06 -0.99498949E-06  0.27589366E-05 -0.33596774E-05  0.94308256E-05
 -0.33836649E-05  0.14851580E-04  0.77497642E-06  0.63094739E-05  0.11259145E-04
 -0.38579135E-06 -0.16597972E-05 -0.11536969E-05 -0.11913504E-05 -0.59278717E-06
 -0.93722965E-06 -0.69199833E-06 -0.23504717E-05  0.11760765E-05 -0.75434737E-06
 -0.17704549E-05 -0.21993723E-06 -0.94352978E-07  0.21592979E-05  0.59409952E-06
 -0.68253632E-07 -0.19330358E-05  0.10370692E-05  0.44271874E-06  0.47899585E-06
 -0.60279321E-06 -0.59388492E-06  0.64560269E-06 -0.12412158E-05  0.87387155E-06
 -0.15069210E-05 -0.46029706E-06 -0.71108892E-06  0.13319311E-09  0.76280899E-06
  0.41436938E-05 -0.11125071E-05  0.49687217E-06 -0.35480758E-06  0.20328548E-04
  0.74982796E-06  0.68697188E-07  0.56240843E-06  0.85827887E-06 -0.78996803E-06
  0.22180717E-05 -0.27077781E-06  0.26406532E-05 -0.91685860E-06  0.12582448E-05
 -0.41073967E-05 -0.68955236E-05  0.10472304E-04  0.13177031E-04 -0.15640149E-04
  0.22949336E-04  0.98534694E-06  0.56201075E-06 -0.21503123E-04 -0.84169778E-06
 -0.15939585E-05  0.56587597E-06 -0.14155281E-05 -0.42580712E-06  0.11533643E-05
  0.64310667E-06  0.70059701E-06  0.37506130E-06  0.94069883E-05 -0.37597806E-05
  0.78617118E-05  0.22776172E-04  0.58892889E-05 -0.56721165E-04 -0.64358826E-06
  0.95944549E-05 -0.70177373E-05 -0.10057407E-05 -0.43929172E-06  0.18998319E-05
 -0.11817099E-05  0.31622377E-06 -0.10929594E-06 -0.57157681E-06 -0.14687913E-05
 -0.10174529E-05 -0.19433051E-04 -0.85489461E-05  0.32471729E-05 -0.12666847E-04
  0.22329240E-05 -0.80844963E-05 -0.44582559E-05 -0.17874850E-05 -0.88279118E-05
  0.56850997E-07  0.32205035E-06 -0.13888174E-05  0.85005064E-06 -0.43288710E-06
 -0.94324338E-06  0.67320842E-06  0.42096422E-06 -0.86820374E-06 -0.18602194E-05
 -0.11129567E-05  0.15050601E-04  0.11339015E-04 -0.68193292E-08 -0.13530211E-04
 -0.23872123E-06 -0.19359802E-04 -0.23814342E-04  0.14938771E-07  0.79048010E-06
  0.10266973E-05 -0.27097599E-05 -0.10264467E-06  0.27369663E-05 -0.16421610E-06
 -0.23343058E-05 -0.17615144E-05 -0.31494328E-06 -0.74955377E-06 -0.41245055E-08
  0.72593681E-07 -0.22052151E-06  0.77313180E-06  0.45632910E-06  0.15108607E-06
 -0.43929417E-06 -0.57650032E-06  0.16723739E-06 -0.13394888E-05 -0.11965375E-05
  0.63690967E-06  0.11620720E-05 -0.20440943E-06  0.10655919E-06  0.77495336E-06
 -0.23147010E-06  0.15888240E-06 -0.71804542E-06  0.24548372E-06  0.70164153E-06
 -0.62554155E-06  0.49214770E-06 -0.26723681E-05 -0.28367218E-06  0.92639967E-06
 -0.10531713E-05  0.11134640E-05 -0.14115464E-06  0.39463416E-06 -0.99638927E-06
  0.26736463E-06 -0.89993038E-07  0.80086064E-06  0.18326039E-05  0.11929654E-04
  0.79018395E-05 -0.95212500E-05  0.40497372E-05 -0.60351655E-04  0.13697597E-04
  0.17095661E-04  0.34393286E-05  0.82715232E-06  0.27697432E-06  0.23927522E-07
 -0.85843979E-07  0.30749772E-06  0.36990012E-06 -0.19797545E-06  0.80507097E-06
  0.13822851E-06 -0.75086057E-05 -0.23534199E-05  0.18633118E-04  0.12636122E-04
 -0.74177882E-05  0.16093231E-04 -0.82610946E-05  0.12648365E-05 -0.88710163E-05

 -0.12543633E-05 -0.64238751E-06  0.81290952E-06  0.41662188E-06 -0.12101523E-05
  0.16495693E-06  0.55489249E-06  0.15753653E-05 -0.58063441E-07 -0.23643436E-06
  0.89113108E-06 -0.19318383E-06  0.47539373E-06 -0.12371522E-05  0.10172164E-05
  0.99107047E-06  0.23589597E-06 -0.56450630E-06  0.57688697E-06  0.99437395E-06
 -0.25436783E-04 -0.19200214E-04  0.17543181E-05 -0.25096524E-06  0.35231179E-05
  0.19077421E-04  0.25361066E-04 -0.26968610E-06 -0.15900575E-05  0.14768647E-05
  0.77492289E-06 -0.14779603E-05  0.10704236E-05  0.19893438E-06  0.76592248E-07
 -0.48031914E-07 -0.30706053E-06 -0.21034937E-05 -0.41558561E-05 -0.45850617E-06
 -0.15878777E-04  0.81850815E-05  0.17894871E-04 -0.53370465E-05 -0.83256022E-05
 -0.62288388E-06  0.76567987E-06 -0.95691156E-06 -0.67101683E-06  0.11608832E-05
  0.39141748E-06 -0.30264341E-06  0.40107910E-06 -0.33260965E-05 -0.12801032E-05
  0.40737342E-06 -0.19680842E-06 -0.75388924E-06  0.16814427E-05 -0.98445916E-06
  0.14700794E-05  0.15200567E-05  0.67007530E-06  0.47532904E-06 -0.13070457E-05
  0.14269656E-05  0.19960658E-06 -0.98349685E-06  0.91173922E-06 -0.61852446E-06
 -0.19377924E-06 -0.19617923E-05  0.47519189E-06 -0.13061087E-05 -0.57590665E-06
 -0.77201284E-06  0.11865066E-05  0.39594963E-06  0.19047088E-05  0.74982796E-06
  0.32968705E-04  0.11868349E-05 -0.20556261E-05 -0.42773870E-05  0.30089486E-05
  0.44785270E-05 -0.48821260E-05  0.16225196E-05 -0.63437366E-06 -0.78583322E-05
  0.25290869E-07 -0.10609180E-04 -0.25387352E-04  0.30875999E-04  0.15103555E-05
 -0.83587898E-04  0.10671382E-05  0.96001220E-06 -0.91261103E-05 -0.44200882E-06
 -0.79695365E-06 -0.65888458E-06 -0.56871211E-06  0.13187661E-05  0.11815798E-05
 -0.12051942E-07  0.11364924E-05 -0.28350929E-07 -0.39097950E-05 -0.87644991E-06
 -0.97453362E-05 -0.12002788E-05 -0.93680301E-05 -0.19399453E-05  0.10891508E-04
  0.21139595E-04  0.13278641E-04 -0.18804532E-05  0.17321392E-05 -0.79571591E-06
  0.72831479E-06 -0.26812448E-05  0.23131532E-06  0.88662559E-06 -0.53307740E-06
 -0.14689803E-05  0.94974443E-05 -0.26500954E-04 -0.78599769E-06 -0.15780964E-05
 -0.25057804E-04 -0.18644094E-04  0.16480811E-04 -0.67139010E-06  0.34613875E-05
 -0.11909311E-05  0.80002886E-08 -0.12287045E-05  0.10719998E-05  0.19434928E-07
 -0.10026063E-05  0.19201717E-05 -0.25377732E-07 -0.39461941E-05  0.65305846E-05
  0.94030423E-05  0.18534026E-05 -0.43402242E-05  0.50252099E-04  0.47356924E-05
  0.90590060E-05  0.64942173E-05  0.10013672E-04  0.15271628E-05 -0.17535723E-05
 -0.39947670E-06 -0.18657337E-06 -0.35582031E-05  0.20809762E-05 -0.15295900E-05
 -0.19828097E-05  0.12782689E-06  0.44140057E-06 -0.21843089E-05 -0.27039449E-06
  0.18015114E-06 -0.47785997E-06 -0.96183018E-06 -0.52319947E-06 -0.12300455E-05
 -0.24643739E-05 -0.11256554E-06  0.19552741E-05  0.12939811E-05 -0.12353692E-07
  0.12431505E-05 -0.20442766E-06 -0.15258653E-06  0.95537096E-06 -0.74033896E-06
 -0.16029237E-06 -0.20521118E-05  0.31361813E-06  0.43050840E-07 -0.11237373E-05
 -0.54392330E-06 -0.44716546E-06  0.37570568E-06 -0.36320715E-05  0.10245794E-06
  0.38526729E-07  0.88837862E-06 -0.15553864E-05  0.12648237E-05 -0.11851579E-06
 -0.13072299E-06 -0.12353634E-05 -0.18304599E-05  0.12440173E-05 -0.69651137E-05
  0.14872031E-04 -0.51941721E-05  0.24912011E-05  0.11537116E-04  0.51901602E-05
 -0.90754504E-05 -0.24308839E-04 -0.90772865E-06 -0.10375984E-06  0.18848380E-06
  0.24818059E-06 -0.34349023E-06 -0.52571404E-06 -0.12122618E-05 -0.17682602E-06
 -0.16169364E-05  0.19640405E-04  0.60428988E-06  0.70728101E-05 -0.53431036E-05
  0.77917298E-05  0.11021883E-04 -0.86263351E-05 -0.41708727E-05 -0.17692159E-04

  0.93830898E-06 -0.89854330E-06  0.53649222E-06 -0.10604295E-05  0.96290858E-06
 -0.12440224E-05 -0.46030845E-06  0.21125407E-06 -0.15979441E-06 -0.37427347E-06
  0.50212591E-06  0.27516960E-05  0.97541043E-06  0.25075558E-05 -0.30512590E-05
  0.20510588E-06 -0.16353144E-05 -0.49951779E-06  0.92849284E-05  0.13434415E-04
  0.31048514E-05  0.22555891E-04 -0.30350827E-04  0.57391049E-05 -0.10780210E-05
  0.48492205E-05  0.18893771E-04 -0.12824692E-05  0.78896297E-06 -0.98777814E-07
  0.11667738E-05 -0.11036464E-05  0.34179787E-05 -0.46886587E-06  0.15335675E-05
  0.20816216E-05  0.33890267E-05 -0.47686077E-05  0.25327288E-04 -0.31328664E-05
  0.35103395E-04  0.12376619E-04 -0.50323393E-06 -0.81364146E-05  0.27746738E-04
  0.21960389E-05  0.27937439E-06  0.81742429E-07  0.13064804E-06 -0.37914490E-06
  0.16241495E-05 -0.81021427E-06 -0.47249020E-06 -0.83084793E-06 -0.11939401E-05
  0.14810317E-05 -0.11117599E-05  0.34747144E-06 -0.19490005E-05 -0.45841025E-06
 -0.78954061E-06  0.12700386E-05 -0.88718230E-07 -0.51983520E-07 -0.64358873E-07
  0.45887216E-06 -0.91418378E-06 -0.17958182E-05  0.33206707E-05  0.32856507E-06
 -0.51916915E-06 -0.21892049E-06 -0.73748698E-06 -0.20788848E-05  0.60491124E-06
 -0.29761506E-06  0.14805498E-05  0.26471241E-06  0.77275162E-06  0.68697188E-07
  0.11868349E-05  0.43106787E-04  0.33018855E-05 -0.32827335E-05  0.36226577E-05
 -0.46502916E-05 -0.77761057E-05 -0.99113455E-06 -0.11379474E-04 -0.16547300E-05
 -0.39764587E-04  0.50901709E-04 -0.15871720E-03  0.18880202E-03  0.76415142E-04
 -0.25391952E-03 -0.19115346E-05 -0.54375378E-04  0.45416146E-04 -0.23465600E-05
  0.52573817E-05  0.58665042E-06 -0.33691509E-05  0.86182234E-05 -0.15909614E-05
  0.21095944E-05 -0.72087216E-06 -0.28239551E-05 -0.11143757E-05  0.23521837E-04
 -0.14042690E-04  0.54373759E-04 -0.77960397E-05 -0.38888093E-04  0.19240161E-04
  0.94688778E-05  0.15714492E-04 -0.27999522E-05 -0.22975083E-05 -0.14486730E-06
  0.16817777E-05 -0.14105828E-06 -0.22547668E-06  0.13496636E-05  0.15219655E-05
 -0.32234628E-05 -0.66618086E-05 -0.34715620E-04 -0.11661424E-04  0.67260656E-04
 -0.15820064E-04  0.56034996E-05 -0.19564809E-04 -0.24353813E-04  0.54849692E-05
 -0.14585102E-05  0.50197208E-07 -0.25944236E-05  0.48792575E-06 -0.35350818E-05
  0.24822945E-05  0.14171003E-05 -0.12555992E-05 -0.13748299E-05 -0.15005241E-04
 -0.13139555E-05  0.35391986E-05 -0.11123855E-04  0.16164637E-04 -0.16489201E-04
 -0.80923141E-05  0.16958290E-04  0.30456672E-04  0.57221844E-06  0.23107108E-06
 -0.11064703E-05  0.73400387E-06  0.22094238E-05 -0.10749701E-05 -0.29103015E-06
  0.13624799E-05  0.63549183E-06  0.11926786E-05  0.13846412E-05 -0.22001550E-06
  0.17533759E-05  0.80539885E-06  0.32583982E-05  0.10622952E-05 -0.49066282E-06
  0.48280029E-06  0.23332387E-06 -0.40715627E-06 -0.38221112E-06  0.16507547E-06
  0.62939958E-06 -0.13790463E-05 -0.90603323E-06  0.21793341E-06  0.40873628E-06
 -0.36842850E-06 -0.44088971E-06  0.14275934E-05  0.74379544E-06 -0.19686041E-05
  0.22310293E-05  0.28180903E-06  0.74818974E-06  0.75399305E-06  0.97404724E-07
 -0.42305018E-05 -0.15525506E-05  0.14378195E-05 -0.22242795E-05  0.35811650E-05
  0.69057318E-06  0.75318162E-06 -0.13088817E-05 -0.13960904E-04  0.26710872E-05
 -0.30016743E-04  0.31767621E-04 -0.17409204E-04 -0.51738370E-04 -0.15015900E-04
 -0.18276036E-05 -0.54585832E-05  0.58117450E-06 -0.58626204E-06 -0.11772949E-06
  0.10488610E-05  0.81098305E-06 -0.23389874E-05 -0.54729560E-06 -0.78215935E-06
  0.45277439E-06 -0.15286682E-04 -0.95533936E-05 -0.99298480E-05  0.30284463E-05
 -0.26289395E-05  0.14700313E-04 -0.12011351E-04  0.46220593E-05 -0.11613398E-04

 -0.27939940E-05 -0.20619079E-05 -0.98420714E-08  0.18100436E-05 -0.61294183E-05
  0.57999500E-06 -0.18110926E-05  0.14882984E-07  0.31850871E-06 -0.56141420E-06
 -0.15804554E-05  0.18827923E-05 -0.50948399E-06  0.21453933E-05  0.56759874E-08
  0.11104301E-06  0.18778093E-05 -0.27412884E-05 -0.27247565E-04 -0.37671581E-04
  0.59912461E-05 -0.20840472E-04  0.24021691E-04  0.32519568E-04  0.17165763E-04
  0.23250091E-04  0.41613064E-05  0.44231949E-06 -0.30558562E-05  0.71299967E-06
  0.20071949E-06 -0.12164452E-05 -0.17274219E-05  0.66103980E-06  0.18219487E-05
  0.82809579E-06 -0.86520450E-05 -0.22432702E-05  0.30455330E-05 -0.72982121E-05
 -0.36275077E-04  0.42402145E-04 -0.23933047E-04 -0.10057746E-04 -0.22384212E-04
 -0.53047596E-06 -0.19617627E-05 -0.63781573E-07 -0.26322945E-05 -0.25862971E-05
  0.34380335E-05 -0.43092020E-06 -0.19666621E-05  0.14261844E-05 -0.14128426E-05
 -0.75127663E-06 -0.56651745E-06 -0.33881765E-06  0.98086731E-06  0.25891695E-05
  0.11224932E-05 -0.27442251E-06 -0.30485678E-05  0.25769251E-07 -0.23896303E-05
 -0.29410734E-05 -0.36910466E-06  0.63358199E-06 -0.18118392E-05  0.67855100E-06
 -0.28111350E-06  0.13069019E-05  0.96391284E-06 -0.64307495E-06  0.98816400E-06
  0.17770448E-05  0.28772794E-05 -0.99058724E-06  0.29700748E-06  0.56240843E-06
 -0.20556261E-05  0.33018855E-05  0.63980346E-04 -0.26714256E-05 -0.10689089E-05
  0.15954998E-05 -0.85997474E-06  0.47651862E-05 -0.10523493E-05 -0.93884567E-05
  0.35870526E-04 -0.96348827E-04 -0.72940318E-04  0.22846748E-04  0.73683105E-04
 -0.92813378E-04  0.72616588E-04  0.72432578E-04 -0.20750584E-03  0.73912003E-05
  0.44861133E-05  0.14193785E-06  0.52257095E-07  0.87279056E-05 -0.22779361E-05
  0.79878355E-05 -0.38160826E-05 -0.42152404E-05  0.35348379E-05  0.30569578E-05
  0.43788925E-05 -0.38619272E-04  0.80501544E-05 -0.17179082E-04 -0.24840385E-04
 -0.16240698E-04  0.42037843E-04 -0.98517920E-07 -0.22359144E-05  0.43952471E-05
  0.17269396E-06  0.10504461E-05  0.12614069E-05  0.14273334E-05  0.93957263E-06
  0.44493842E-05 -0.33222062E-05 -0.78565369E-05  0.18552220E-04  0.88732566E-05
  0.51802552E-04  0.27326873E-04  0.24950554E-04 -0.22912254E-04 -0.25387861E-05
  0.61296355E-06  0.54831606E-05  0.33692586E-06 -0.62777773E-06  0.78110617E-05
 -0.18875941E-06 -0.21040914E-05 -0.60719241E-06 -0.27338327E-05 -0.11394515E-04
  0.81483870E-05 -0.11228035E-05  0.13614766E-05  0.72679369E-04 -0.25827367E-04
  0.92959959E-07 -0.99708984E-05 -0.40631901E-04  0.61307180E-06  0.33677232E-05
 -0.11447080E-06 -0.57040892E-06 -0.29491712E-05  0.30392862E-05 -0.20654002E-05
  0.76094615E-06 -0.55344687E-06 -0.52231187E-06  0.20941450E-05  0.14057460E-05
 -0.16344324E-06  0.24098953E-05  0.44136848E-06  0.66557577E-06 -0.95200431E-06
  0.50428129E-05  0.17966615E-06 -0.22480091E-05 -0.51642796E-06  0.30599652E-06
 -0.15844584E-05 -0.14368219E-05 -0.65487669E-06 -0.95645930E-06  0.61705037E-06
  0.15456624E-05 -0.15691250E-05  0.10185647E-05 -0.44486717E-06 -0.29311289E-05
  0.76183381E-06 -0.44014491E-06  0.11267578E-05  0.27380639E-06 -0.15215740E-05
 -0.49812383E-05  0.54736259E-05  0.74009979E-06 -0.72203819E-05  0.11702694E-05
  0.24610695E-05 -0.18290089E-06  0.49823415E-05  0.75863247E-05  0.18064302E-04
 -0.69135189E-04 -0.38029991E-05 -0.78298096E-04  0.18729728E-03 -0.38667480E-05
 -0.35594739E-04  0.19677542E-04  0.41777400E-06 -0.26284512E-05  0.24685026E-06
  0.49232131E-06  0.28448064E-05 -0.29370319E-06 -0.10438249E-05  0.73274099E-06
 -0.36484386E-06 -0.31965027E-04  0.35422374E-05 -0.57589428E-05  0.41297403E-04
 -0.11668892E-04 -0.29113426E-04 -0.19639816E-05 -0.15343908E-04  0.92769761E-05

  0.36268896E-06  0.28077181E-05  0.19940344E-05 -0.30283074E-05 -0.52926329E-06
  0.25928460E-05 -0.36524243E-06 -0.35743531E-05  0.24914374E-05  0.14928553E-05
 -0.12682381E-05  0.12503907E-05 -0.88135303E-06 -0.25345603E-05 -0.15752960E-05
  0.19368723E-06 -0.32649395E-06 -0.15420189E-05 -0.30975362E-04 -0.47936149E-05
 -0.29414048E-04  0.81528259E-04 -0.15274439E-04 -0.63415104E-04  0.30449420E-04
 -0.10845041E-04  0.92219304E-05 -0.10649578E-05  0.20978572E-05 -0.32735115E-05
 -0.10971281E-05  0.73273371E-06  0.55013044E-05  0.28078626E-05  0.20322251E-05
 -0.14757133E-05  0.32920506E-04  0.22833608E-04  0.44218937E-05  0.86646921E-05
  0.76700896E-05  0.29433570E-04  0.80689286E-05  0.31269674E-04 -0.43483071E-05
 -0.87743450E-06 -0.21177375E-05  0.33000308E-05 -0.17529343E-05  0.27319905E-05
 -0.97519826E-06 -0.13913203E-05  0.87265459E-06  0.10922696E-05 -0.43204174E-06
  0.79245213E-07 -0.53759333E-05  0.62854225E-06 -0.16072206E-05  0.95608206E-06
  0.42877874E-06 -0.46785937E-06 -0.11639846E-05  0.64257719E-06 -0.26378173E-07
 -0.53295139E-06 -0.16410813E-05  0.62887871E-06 -0.21963479E-05  0.10318131E-05
  0.12036486E-06  0.22541998E-05  0.22595238E-05  0.45467440E-05  0.12595725E-05
  0.29825715E-05 -0.20318954E-05 -0.73606989E-05 -0.11752469E-05  0.85827887E-06
 -0.42773870E-05 -0.32827335E-05 -0.26714256E-05  0.60452123E-04  0.14663525E-04
  0.12213438E-04 -0.14785882E-04  0.33766944E-05  0.16368621E-05 -0.13020645E-05
 -0.14264190E-03 -0.42157098E-04  0.17916082E-03 -0.17756652E-04 -0.13471796E-03
  0.61784609E-04  0.63708397E-04 -0.14922904E-03 -0.39628301E-04 -0.24042427E-05
 -0.43851105E-05 -0.19929963E-05 -0.21339472E-06 -0.96893243E-05  0.32445108E-05
 -0.52402320E-05 -0.94693733E-06  0.13181994E-05 -0.30388500E-04 -0.14713218E-04
  0.21103050E-04  0.11726083E-04 -0.16579066E-04  0.48898036E-04 -0.31852966E-05
 -0.11823198E-04 -0.24578398E-04 -0.37036779E-06  0.31719935E-06 -0.46093378E-05
 -0.24165551E-06 -0.62445290E-06  0.71929268E-06  0.41429045E-06  0.28851057E-05
  0.49954573E-05  0.36177426E-05 -0.23177544E-05  0.79964428E-05 -0.13345766E-04
  0.19438221E-05 -0.32982321E-04  0.38814928E-05  0.11768279E-04  0.28901950E-04
 -0.10746353E-05  0.55588534E-06 -0.42604365E-05 -0.10178461E-05  0.35792965E-05
 -0.56758542E-06 -0.58788173E-06  0.42675896E-06  0.13547822E-05  0.73198190E-05
  0.44627163E-05 -0.63391734E-04  0.14706627E-05 -0.20724470E-04  0.10288239E-04
  0.60454349E-05 -0.35658105E-04 -0.24317565E-04 -0.12882159E-05 -0.20668181E-05
  0.23606357E-05  0.44833301E-07 -0.29737176E-05  0.94733987E-06  0.96016784E-06
 -0.12743742E-05 -0.35683616E-06 -0.10036916E-05 -0.76200845E-06 -0.53427347E-05
  0.38582597E-06 -0.41990735E-05 -0.46759713E-06  0.64651247E-06  0.45414249E-05
  0.20988310E-05  0.19491159E-05  0.32611332E-05  0.15825875E-05 -0.79585615E-06
  0.27055452E-06  0.60780965E-06 -0.31185228E-06 -0.17655371E-05 -0.16778790E-05
  0.10502049E-05 -0.12290562E-05 -0.25608473E-05 -0.59173706E-06 -0.10691693E-05
  0.20829930E-05  0.16082346E-06  0.12824622E-05  0.14175639E-06 -0.33674157E-05
  0.76554610E-06 -0.73457635E-06  0.14467361E-05 -0.62375186E-06 -0.15361258E-05
 -0.27786307E-05  0.18295278E-05 -0.25950340E-05 -0.55171630E-06 -0.14672115E-04
 -0.47391265E-04 -0.10389143E-04  0.78999905E-05 -0.16263496E-04 -0.51111600E-05
  0.27378525E-05 -0.35058906E-05  0.10349313E-05  0.74057156E-06 -0.10353020E-05
 -0.58974215E-06  0.65726773E-06 -0.42431366E-05 -0.10287081E-06 -0.10931247E-05
 -0.15066389E-05  0.17733934E-04  0.22887840E-04 -0.20183022E-04 -0.22460550E-06
  0.31931723E-05 -0.19855073E-05  0.90100244E-05 -0.14582728E-04 -0.56989378E-05

 -0.37572513E-05  0.26071489E-06  0.55324308E-06 -0.11906237E-05  0.16729399E-05
 -0.17999386E-05  0.51182119E-07 -0.11307106E-06  0.94152671E-06  0.11302348E-05
  0.62005874E-06  0.12838056E-05  0.98580047E-07 -0.45111452E-06  0.42905702E-06
 -0.26529878E-06 -0.76391876E-06 -0.13140714E-05 -0.53558119E-05  0.16136121E-05
 -0.25143648E-05  0.73144258E-05 -0.18955467E-04 -0.17143205E-04  0.35153963E-05
 -0.85381935E-05  0.16271626E-04 -0.78726972E-06  0.22261719E-06 -0.14100266E-05
 -0.32907929E-06 -0.63551216E-06  0.26616928E-05  0.11361422E-05  0.28830017E-06
 -0.17752987E-05  0.14996209E-05  0.30230068E-04 -0.27364157E-05  0.27530711E-04
  0.28182968E-05  0.14886541E-04  0.15022659E-04  0.16406404E-04  0.10588403E-04
 -0.11745408E-05 -0.89916276E-06  0.24921595E-06  0.25191914E-05 -0.20342207E-05
  0.12560606E-05 -0.10684514E-05 -0.14373594E-05 -0.56851241E-06  0.21703055E-05
  0.17319345E-05 -0.11013043E-05 -0.39820394E-05  0.24581443E-05  0.96644911E-06
 -0.97116914E-08 -0.69223771E-06  0.32397581E-06 -0.15685391E-06  0.61754797E-06
  0.83038685E-06 -0.12780062E-05  0.15515347E-05  0.10938993E-05 -0.34063513E-06
  0.35018764E-06  0.12083413E-06 -0.68600350E-06 -0.12572897E-05 -0.26308951E-05
 -0.36769669E-05  0.61723283E-05 -0.20965690E-05  0.15762645E-05 -0.78996803E-06
  0.30089486E-05  0.36226577E-05 -0.10689089E-05  0.14663525E-04  0.61930755E-04
 -0.14954228E-04 -0.27414341E-04  0.39954801E-05  0.60565933E-06  0.82852237E-06
 -0.12812483E-03 -0.69302159E-05  0.86607618E-04  0.13657669E-04 -0.53317806E-04
 -0.36451739E-05  0.15419147E-04 -0.17558573E-03 -0.13595744E-05  0.53412356E-06
 -0.22512641E-05  0.11788521E-05 -0.36720073E-05 -0.11032739E-05  0.33021664E-05
  0.39336845E-05 -0.66589204E-06  0.65638902E-06 -0.11262109E-04 -0.11147341E-04
 -0.81485066E-05 -0.30417624E-04  0.28993388E-04  0.32969639E-04  0.12481407E-04
  0.50351567E-05 -0.86319420E-05 -0.21792976E-05 -0.39267818E-06 -0.24260052E-05
 -0.25176539E-05  0.22222014E-05 -0.38226402E-06 -0.66085498E-06  0.25284314E-05
  0.19583546E-05 -0.91361925E-05  0.21401528E-06  0.74927441E-05  0.18301946E-05
 -0.81770370E-05  0.13465589E-04  0.14503588E-05  0.19427846E-05  0.14562012E-04
 -0.13965358E-05 -0.62728662E-07 -0.26786873E-06 -0.19315252E-05  0.23831180E-05
  0.10503150E-05 -0.11970144E-05 -0.61513376E-06  0.67702626E-06 -0.22754551E-04
  0.30387970E-06 -0.12113878E-04  0.18841791E-04 -0.10766920E-05 -0.13299054E-04
 -0.93730009E-05  0.12501629E-04 -0.51299084E-05 -0.29290429E-06 -0.35706360E-06
  0.80157106E-06 -0.10518025E-07 -0.30354530E-06  0.23065559E-05 -0.32207654E-06
  0.17716905E-05  0.84042280E-06  0.15970549E-05 -0.38975299E-06 -0.51482146E-06
 -0.38494795E-05 -0.16072991E-05  0.16286800E-05 -0.55370965E-06  0.48443634E-06
  0.33250527E-06  0.55717152E-06  0.10736765E-05  0.25582398E-06  0.10690676E-05
 -0.26710400E-06  0.10038329E-05  0.45745075E-06  0.38552365E-06  0.22973815E-06
 -0.58203397E-06 -0.31826339E-06 -0.24347730E-05 -0.26206697E-05 -0.67347013E-07
  0.17663784E-05 -0.23948496E-06  0.41038723E-06 -0.13798295E-06 -0.17062556E-05
 -0.34245597E-05  0.10965551E-05  0.34719761E-05 -0.19977314E-05  0.10486209E-05
 -0.24451675E-05 -0.13149151E-05 -0.20931411E-05  0.10385828E-04 -0.11505959E-04
 -0.83426918E-05 -0.61697851E-04  0.58817326E-05 -0.25213949E-04  0.93839369E-05
  0.32665220E-04  0.12512250E-05  0.28545996E-05 -0.85696544E-06 -0.51857984E-06
 -0.71666573E-06  0.16074436E-05 -0.11194577E-05 -0.11985049E-05  0.39821181E-06
 -0.24222232E-06  0.10036436E-04  0.18582259E-04 -0.14305099E-04 -0.12325323E-04
  0.45073654E-05 -0.82410106E-05 -0.11085723E-05  0.72291819E-05 -0.63585862E-05

 -0.52228138E-06 -0.17215744E-05 -0.99784085E-06 -0.44868333E-06 -0.43574183E-05
  0.20723519E-05  0.52422457E-06  0.49094705E-07  0.21670407E-05  0.22926281E-07
 -0.14019425E-05  0.94208772E-06  0.18196463E-06 -0.25476293E-05  0.69135847E-06
  0.21334844E-05  0.97629209E-06 -0.12272876E-06 -0.31272589E-04 -0.30913841E-04
  0.11349513E-04  0.90676123E-04 -0.62903432E-04  0.17895926E-04  0.21748791E-04
  0.16627666E-04 -0.39713596E-05  0.15460296E-05  0.16349436E-05  0.10459406E-05
 -0.23151073E-05  0.61200268E-05  0.27322497E-05  0.11778374E-05 -0.21471056E-05
 -0.10967869E-05 -0.90594129E-05  0.46953131E-05 -0.21380642E-04 -0.32265372E-05
 -0.43876783E-04  0.23335870E-04 -0.22422295E-04 -0.74008084E-05 -0.99638913E-05
  0.65749473E-06  0.66912605E-06  0.21836622E-05 -0.20218550E-05  0.40419688E-05
  0.19226417E-06 -0.26444696E-05 -0.34731385E-06 -0.98197642E-06 -0.22939606E-05
 -0.28766280E-05  0.10717009E-05  0.25148138E-05 -0.12117956E-04  0.40380709E-05
  0.23497527E-05  0.12584544E-05 -0.97234517E-06 -0.13129797E-05 -0.18940271E-05
 -0.24206372E-05  0.15000838E-05 -0.43525825E-05  0.20430942E-06  0.86295695E-06
  0.36893786E-06 -0.24015575E-06  0.13294768E-05 -0.58864523E-05 -0.75914811E-08
  0.25054440E-05 -0.32125154E-05 -0.32610411E-05  0.36559278E-06  0.22180717E-05
  0.44785270E-05 -0.46502916E-05  0.15954998E-05  0.12213438E-04 -0.14954228E-04
  0.10064015E-03 -0.26277555E-04  0.13076407E-04  0.30503219E-05 -0.91766363E-05
 -0.50906837E-04 -0.71249471E-04  0.10409230E-03 -0.16077389E-04 -0.11645342E-03
  0.13826870E-04  0.10611166E-03 -0.64684411E-04 -0.21310837E-03 -0.86235883E-05
 -0.13111806E-04 -0.25619134E-05 -0.28830453E-08 -0.94243229E-05  0.70246861E-05
 -0.13172576E-04  0.14820323E-05  0.93155278E-05  0.49707239E-05 -0.73521252E-04
 -0.55147706E-04  0.18029586E-03 -0.12288922E-03 -0.31817614E-04 -0.10389144E-04
 -0.40720977E-04 -0.45094915E-04 -0.28805222E-06 -0.98818303E-06  0.30512825E-05
  0.15711482E-05 -0.72099644E-05  0.45126882E-06  0.84126700E-06  0.47152408E-06
  0.80655800E-06  0.19038511E-04 -0.18054717E-04 -0.19282971E-04  0.11737300E-04
 -0.30245929E-04  0.35654337E-04  0.11209140E-04 -0.32669951E-04  0.11604005E-04
  0.13702194E-05  0.42771750E-05 -0.82571287E-06  0.13048315E-05 -0.39958593E-05
  0.10175525E-05  0.48630459E-05 -0.81023400E-06 -0.21473288E-05  0.14285505E-04
  0.45232320E-05  0.33462148E-05 -0.11938646E-04  0.58843106E-04 -0.21295867E-04
  0.24671279E-04 -0.54837792E-05 -0.38342678E-04  0.11376329E-05  0.60703447E-05
 -0.23384277E-06  0.16447473E-05 -0.12636167E-04  0.46609839E-05 -0.10977977E-05
 -0.46578366E-06 -0.62159573E-06 -0.22785129E-05  0.50484200E-06 -0.95015988E-06
 -0.42015050E-06  0.36205426E-05 -0.12138156E-05 -0.24941706E-05 -0.29389870E-06
 -0.64722934E-06  0.90779789E-06  0.65322820E-06 -0.10781378E-05  0.11326291E-06
 -0.12428767E-05  0.17707376E-06 -0.38979291E-05 -0.63965384E-06  0.34438259E-06
  0.57534667E-06 -0.71654649E-05  0.10324453E-06  0.11997504E-05 -0.45936501E-05
  0.12252783E-05 -0.39267626E-06 -0.68134947E-06 -0.36662062E-05 -0.90946745E-06
  0.67523556E-05  0.80156265E-06 -0.22616763E-05  0.23844957E-05 -0.74380084E-06
 -0.31960382E-05 -0.26477851E-06  0.29805742E-05  0.20531496E-04  0.64867389E-05
 -0.10332083E-04  0.12420156E-04  0.68658666E-04  0.47647753E-04  0.11104700E-04
 -0.12389565E-04 -0.24977268E-04  0.26245441E-07  0.23152372E-05 -0.11980882E-05
  0.11292613E-05 -0.22675216E-05 -0.48594541E-06  0.82011748E-06 -0.95069537E-06
 -0.30381000E-05  0.24460981E-04  0.35157722E-05  0.37498203E-04 -0.45120258E-05
  0.25605753E-04 -0.46846793E-05  0.19600572E-04 -0.17530371E-04 -0.49183042E-05

  0.52040754E-06 -0.26804362E-05  0.19616959E-05 -0.10128943E-07 -0.49550876E-07
  0.59167511E-05  0.12555441E-05 -0.24200878E-05 -0.20101802E-05 -0.24066812E-05
 -0.16010650E-05 -0.46994462E-05  0.81607677E-06  0.15400079E-05  0.28859012E-06
 -0.17622919E-05 -0.17172888E-05  0.19755318E-05  0.41624222E-04  0.12754020E-04
 -0.24982507E-04 -0.79734687E-04  0.58308197E-04  0.44795955E-04 -0.42759657E-06
 -0.46830017E-05 -0.31008640E-04  0.34237034E-06 -0.53048457E-06 -0.13940365E-05
  0.26090084E-05  0.52983027E-07 -0.44375935E-05 -0.14813910E-05  0.14158237E-05
 -0.25811076E-06  0.50701168E-06 -0.25514011E-04  0.76110576E-05  0.10164564E-04
  0.24778902E-04 -0.57720558E-04  0.14056874E-04  0.70193030E-05  0.16955354E-04
 -0.15491837E-06  0.36156547E-06 -0.18149932E-05  0.12730762E-05 -0.92996636E-06
 -0.36731553E-05  0.91769316E-06  0.65425838E-06 -0.12372077E-05 -0.64468831E-06
  0.10221015E-05  0.22375502E-05  0.16477078E-05  0.20535275E-05 -0.15690057E-05
 -0.10461098E-05 -0.10512197E-05 -0.81044216E-06  0.49908647E-06  0.14767813E-05
  0.38172133E-06  0.25623567E-05  0.23193565E-05 -0.62998321E-05  0.45583941E-07
  0.17176413E-06  0.11559779E-05 -0.64990647E-06  0.56680437E-05  0.43383264E-05
  0.21036488E-05 -0.50515555E-05  0.22795039E-05 -0.20315841E-07 -0.27077781E-06
 -0.48821260E-05 -0.77761057E-05 -0.85997474E-06 -0.14785882E-04 -0.27414341E-04
 -0.26277555E-04  0.76883047E-04 -0.85172648E-05  0.48665018E-05  0.47464566E-05
  0.14340488E-03  0.50190547E-04 -0.18659896E-04 -0.76978865E-04  0.64370583E-04
  0.23499520E-03 -0.76403641E-04  0.11342217E-03  0.46967810E-04  0.37619369E-05
  0.76054450E-05  0.26590253E-06  0.41625153E-06  0.10665054E-04 -0.79937425E-05
  0.43899214E-05 -0.17711822E-05 -0.50115677E-05 -0.46140006E-05  0.37639155E-04
  0.12706767E-04 -0.13108717E-04  0.30386079E-04 -0.85237170E-04 -0.65842743E-05
  0.41449807E-05  0.19309043E-04  0.32289732E-06 -0.17292458E-05  0.17686772E-05
 -0.74453166E-07  0.23413606E-05  0.11814608E-05  0.50779515E-06 -0.72584593E-06
 -0.69884047E-06 -0.61352566E-05  0.92177053E-06  0.45693220E-04  0.38684470E-04
  0.11979193E-04 -0.60075519E-04 -0.23272240E-04  0.91178109E-05  0.10420044E-04
 -0.97648264E-06 -0.79433665E-06 -0.35750171E-05  0.19563253E-05  0.17290097E-05
 -0.98102453E-05 -0.19881910E-05  0.36021773E-06 -0.11140114E-05  0.76034570E-05
  0.74786274E-05  0.30763902E-04 -0.46666542E-05 -0.17468380E-04  0.33660723E-04
  0.80866491E-05 -0.16404431E-04  0.13491116E-05 -0.11006335E-05 -0.10687231E-06
  0.19341139E-05  0.15738323E-05  0.57576745E-05 -0.57101272E-05 -0.59208027E-06
 -0.86983997E-06 -0.26058381E-05  0.41533052E-06 -0.10995397E-05 -0.54431332E-06
  0.97887840E-06  0.23204293E-05 -0.19878087E-06  0.59735333E-06 -0.40779721E-06
  0.31325900E-05  0.15873120E-06 -0.40628765E-06  0.39117086E-07  0.55223974E-06
 -0.14970473E-05  0.21158928E-05  0.54198524E-06 -0.73645769E-06 -0.89528857E-06
  0.28698074E-07  0.41724402E-05  0.13113597E-05  0.18552909E-05  0.25450052E-05
 -0.37836744E-06  0.35491760E-06 -0.96882619E-06  0.24029542E-07  0.97537599E-06
  0.12689861E-05 -0.63998547E-06 -0.99554036E-07  0.26577250E-05 -0.75229769E-05
  0.23014137E-05  0.17879044E-05  0.23077879E-05 -0.11244430E-04  0.31246972E-04
  0.16520798E-04  0.25624617E-04 -0.34730241E-04  0.13314752E-03 -0.18680637E-04
 -0.26329011E-04  0.14236433E-04 -0.91918439E-06  0.99520434E-07  0.30864516E-05
 -0.68012018E-06  0.50248345E-06  0.52321779E-05  0.53668717E-06  0.59530792E-06
  0.31797843E-05 -0.63775958E-05 -0.19856076E-04  0.80710154E-05  0.12891548E-04
 -0.12179134E-04  0.10838514E-05 -0.14484664E-04  0.18981750E-04 -0.27047850E-06

 -0.26882728E-05 -0.17960224E-05 -0.31035598E-06  0.14629116E-06  0.21438969E-06
 -0.13524595E-05 -0.38073983E-05 -0.40444746E-06  0.51740406E-06 -0.86872424E-06
 -0.58183845E-06  0.24382310E-05  0.12236812E-05 -0.22998073E-05  0.10258616E-05
  0.12479083E-05 -0.67440903E-06 -0.97216634E-07 -0.42486136E-05 -0.16075958E-04
  0.12283200E-04 -0.36753145E-04  0.70501544E-05  0.31578001E-04  0.11081899E-04
  0.37575032E-04  0.91713980E-05  0.15070245E-05 -0.10677171E-05 -0.52287068E-06
 -0.14148820E-05  0.34661054E-06  0.73733731E-06  0.79450784E-06 -0.18109667E-05
 -0.43491836E-05 -0.65898772E-05  0.30061628E-04 -0.18372185E-04  0.62026336E-05
 -0.32375161E-04 -0.16410562E-04 -0.26770579E-05 -0.18250963E-04 -0.19858738E-04
 -0.62917127E-06 -0.78476504E-07 -0.50536344E-06  0.13202973E-06  0.23043879E-05
 -0.68266992E-07 -0.24547818E-06 -0.28027780E-05  0.80188295E-06 -0.21864071E-06
  0.22392040E-05 -0.10174984E-05 -0.14355990E-05  0.29768492E-05  0.52406859E-06
 -0.18163163E-05  0.36727878E-06 -0.71305834E-06 -0.20310309E-06 -0.16982450E-05
  0.30110194E-06  0.35271524E-06 -0.88764009E-06 -0.14789590E-06 -0.20359940E-06
  0.17132668E-06  0.41413738E-06 -0.16784893E-05 -0.11546589E-05 -0.13517066E-05
 -0.16451439E-05  0.14140835E-05  0.16484520E-05 -0.34593820E-06  0.26406532E-05
  0.16225196E-05 -0.99113455E-06  0.47651862E-05  0.33766944E-05  0.39954801E-05
  0.13076407E-04 -0.85172648E-05  0.37235818E-04 -0.23553248E-05 -0.37304915E-05
 -0.32701725E-04 -0.85744594E-04 -0.13081896E-04  0.29514117E-04  0.44998460E-04
 -0.57593330E-04  0.10074944E-04 -0.35734305E-04 -0.13742895E-03  0.24507799E-06
 -0.11680317E-04 -0.14724985E-06  0.48386509E-05 -0.12620645E-04  0.51511046E-05
 -0.18327097E-05 -0.81868573E-06  0.53775892E-05  0.26084066E-05 -0.50778994E-04
 -0.27910783E-04 -0.28804084E-05  0.53133495E-05  0.40560623E-05 -0.53970252E-05
 -0.21965173E-04 -0.35155085E-04  0.12607644E-05 -0.15522508E-06  0.98145445E-06
  0.11878295E-06  0.79250356E-06 -0.53389108E-06 -0.28059361E-05  0.15833472E-05
  0.47030148E-06 -0.34714115E-05  0.82437883E-05 -0.50594987E-05  0.11608836E-05
 -0.20284869E-04  0.42357087E-05  0.55148424E-05 -0.16924003E-05 -0.78189353E-05
  0.48145156E-06  0.22917248E-05 -0.54760248E-06 -0.19659975E-06  0.26616123E-05
 -0.47845501E-06  0.97762880E-06 -0.21797060E-06  0.14344000E-05  0.17557601E-04
  0.12344772E-04  0.49408461E-05  0.47343932E-05 -0.78751238E-05 -0.11953989E-04
 -0.74483056E-05 -0.72950936E-06 -0.11505221E-04  0.12691819E-05  0.49216534E-06
  0.51131520E-06 -0.19297298E-06 -0.47216611E-05  0.79965342E-06 -0.12440548E-05
  0.11736725E-05  0.40394604E-06  0.18203323E-06 -0.20550273E-06  0.78108101E-06
 -0.12278060E-05 -0.30196084E-06  0.10984558E-05 -0.20861936E-05  0.11436170E-06
 -0.32988483E-07 -0.17566361E-07 -0.30935276E-06 -0.22541749E-06 -0.20625430E-07
  0.11257021E-05 -0.51687300E-06 -0.47940412E-06 -0.35519037E-06  0.11198515E-05
  0.10908222E-06 -0.12209899E-05  0.52489570E-06 -0.84656568E-06 -0.96700783E-06
  0.42863037E-06 -0.87547820E-06  0.49908923E-06  0.46041340E-06  0.22131165E-05
  0.16470017E-05  0.27960766E-05 -0.94188191E-06 -0.87686634E-06 -0.55584517E-07
 -0.29215192E-06 -0.64559524E-06 -0.11063743E-05 -0.97690947E-06 -0.24509261E-05
  0.24764750E-04  0.32715448E-05  0.28944434E-04 -0.36319433E-04  0.32416093E-05
  0.10442460E-06  0.21144240E-05  0.25839319E-06  0.83029646E-06 -0.27016097E-06
  0.90571250E-06 -0.91127051E-06 -0.14761685E-06 -0.81204987E-06  0.30929027E-06
 -0.89782383E-06  0.25632150E-05  0.18020660E-04 -0.37418179E-05  0.30891096E-04
  0.60084961E-05  0.44922457E-05  0.71901219E-05  0.10682133E-04  0.32477793E-05

  0.63975329E-06  0.12198292E-05 -0.10968322E-05 -0.81815650E-06  0.66451157E-06
 -0.25352038E-05  0.23840726E-06 -0.46431025E-06  0.19325215E-05  0.82396905E-06
 -0.13186122E-05 -0.37272594E-05 -0.71882342E-06  0.48773592E-07 -0.19116927E-06
 -0.61437957E-06 -0.29117563E-06  0.13871963E-06 -0.78707684E-05 -0.17305063E-04
 -0.87667421E-06 -0.20099065E-04 -0.10016861E-04  0.97717853E-05 -0.55288425E-05
 -0.22490369E-06 -0.14991334E-05 -0.76142220E-06  0.12373015E-05 -0.18758789E-06
  0.29545821E-06  0.28125097E-06  0.29964687E-06 -0.64821398E-06  0.11666677E-05
 -0.22435956E-05  0.39274239E-05  0.14234282E-04 -0.11865327E-04 -0.10437904E-04
  0.25164764E-04  0.16575148E-04  0.31444477E-05  0.91960839E-05  0.15542340E-04
 -0.96106477E-06 -0.59755895E-06 -0.38288373E-06 -0.14209185E-05 -0.97171371E-06
  0.58558226E-06 -0.83221080E-06  0.61607673E-07 -0.79570498E-06 -0.12266672E-06
 -0.18288239E-05  0.45256895E-06 -0.13325595E-05  0.40250017E-06  0.10232648E-05
  0.64290462E-06 -0.44656142E-06 -0.60101393E-06 -0.69083745E-06 -0.43564399E-06
  0.88732517E-07 -0.52750733E-06 -0.99893778E-06 -0.10921913E-05 -0.26948861E-06
 -0.18913768E-05  0.61629148E-06 -0.76969808E-06 -0.11763293E-05 -0.59218527E-06
 -0.89342594E-06  0.77646531E-06 -0.92869276E-06  0.29312805E-05 -0.91685860E-06
 -0.63437366E-06 -0.11379474E-04 -0.10523493E-05  0.16368621E-05  0.60565933E-06
  0.30503219E-05  0.48665018E-05 -0.23553248E-05  0.33563222E-04  0.25977891E-05
  0.44182695E-04 -0.38963889E-04  0.14557535E-03 -0.14597766E-03 -0.49115893E-04
  0.12502645E-03 -0.17163245E-04  0.58454499E-04 -0.44624826E-04 -0.27261125E-06
 -0.65426607E-06  0.10347770E-06 -0.65541944E-06 -0.24176907E-06 -0.18815724E-05
 -0.14197470E-05 -0.23691243E-05  0.44710553E-05 -0.17531802E-04 -0.92883401E-05
 -0.19379105E-04 -0.95450282E-05  0.17884241E-05 -0.12367467E-05 -0.71638536E-05
 -0.13433228E-04 -0.19579681E-05  0.65520395E-06 -0.43539839E-06 -0.61182756E-06
  0.13135106E-05 -0.10381208E-05  0.27401874E-07  0.51458698E-06 -0.11621273E-05
 -0.14576785E-07 -0.60974344E-05  0.66682739E-05  0.16903030E-04 -0.89715687E-06
  0.45923697E-05 -0.12435203E-04  0.11014871E-04  0.11842213E-04 -0.79910852E-05
 -0.27641001E-05  0.21822145E-05  0.72328836E-06 -0.26184568E-05  0.10972787E-05
 -0.24532821E-06 -0.76643177E-06 -0.42218945E-05  0.10416929E-05 -0.45015767E-05
 -0.21916534E-04 -0.44948661E-05  0.17353434E-04 -0.20239706E-04 -0.18915465E-04
 -0.95252576E-05 -0.11894856E-05 -0.34361429E-05  0.41567931E-06 -0.82564205E-06
 -0.91912596E-06  0.20155352E-05 -0.46944509E-06 -0.10287259E-05 -0.66509460E-06
 -0.60995086E-06 -0.28158407E-06 -0.99318975E-06 -0.10773781E-05  0.29938960E-05
 -0.21053183E-06 -0.78494878E-06 -0.16366601E-05  0.35484978E-06 -0.17152757E-05
 -0.52561449E-07  0.21810628E-06 -0.63812172E-06  0.13183424E-05 -0.58125371E-06
 -0.38659120E-06  0.41894759E-06 -0.84841805E-06 -0.37030336E-06 -0.96008117E-07
  0.87749326E-06 -0.47403049E-06 -0.76340094E-06 -0.54716941E-06  0.56154505E-06
 -0.17980928E-05  0.69160776E-06 -0.63322182E-06 -0.73675139E-06 -0.66870119E-07
  0.33831374E-06  0.51709625E-06 -0.10651660E-05 -0.11384778E-05  0.40082944E-06
 -0.12790388E-06 -0.45863219E-06  0.14508844E-05  0.88618172E-05  0.10083101E-04
 -0.23571860E-04  0.66684967E-06 -0.90830968E-05  0.46417589E-04  0.10374374E-04
  0.13260791E-04 -0.17569631E-04  0.13187369E-05  0.26760341E-06 -0.33051284E-06
  0.79773214E-06 -0.49751757E-06  0.24944836E-06  0.17890762E-06 -0.17339672E-07
 -0.12978502E-05  0.10606634E-04  0.12202523E-04 -0.17231236E-05 -0.24524247E-05
  0.33094774E-05  0.92416374E-06  0.16004668E-05 -0.76425379E-05 -0.20501099E-05

  0.12258131E-06  0.20507303E-05 -0.11655307E-05  0.15944422E-05 -0.10769363E-05
 -0.27423643E-05  0.32348821E-07 -0.34626041E-06 -0.30100332E-05  0.21967796E-05
  0.42093118E-05  0.26262088E-05 -0.18569203E-05  0.20177444E-05 -0.71718292E-06
  0.19585135E-06 -0.84946247E-06  0.24964397E-05  0.30179204E-04  0.14138778E-04
  0.11709497E-04  0.68576871E-04 -0.47781542E-04  0.22999422E-04 -0.32876737E-04
  0.32809718E-05 -0.36543269E-05  0.11271416E-05 -0.33145137E-05  0.28622325E-05
 -0.22195124E-06 -0.30781138E-05 -0.13895556E-05 -0.32477166E-05 -0.17069237E-05
  0.18220771E-05 -0.24452239E-04 -0.26376230E-05 -0.18827016E-04  0.66240052E-05
 -0.83653189E-05 -0.30137462E-04 -0.50780562E-05 -0.19117968E-04  0.42836017E-04
 -0.17073253E-05  0.10347982E-05 -0.14864779E-05 -0.10279406E-05 -0.12200098E-05
 -0.24416457E-05  0.13445675E-05 -0.39508273E-06 -0.76839922E-06 -0.15669466E-05
 -0.12133621E-06 -0.11062467E-05 -0.46737420E-06  0.86257581E-06  0.17175587E-05
 -0.22353388E-07  0.45665400E-06  0.11847451E-05  0.43589902E-06  0.78972050E-06
  0.85406457E-06 -0.58754187E-06  0.12339908E-05 -0.32049596E-06  0.69534851E-06
 -0.25259750E-06  0.22358397E-06 -0.55506220E-06  0.41551529E-05  0.51764781E-05
  0.57315564E-05 -0.43500364E-05 -0.63937595E-05  0.11665286E-05  0.12582448E-05
 -0.78583322E-05 -0.16547300E-05 -0.93884567E-05 -0.13020645E-05  0.82852237E-06
 -0.91766363E-05  0.47464566E-05 -0.37304915E-05  0.25977891E-05  0.54736767E-04
 -0.46408570E-04  0.12556495E-03  0.73230561E-04 -0.14306173E-04 -0.71285262E-04
  0.12244565E-03 -0.97281744E-04 -0.54143715E-04  0.17680393E-03  0.98036966E-06
  0.58732505E-06  0.30772169E-05 -0.17112016E-07  0.57639130E-05 -0.87717393E-05
  0.36819071E-05  0.58190836E-05  0.52980822E-05  0.39264506E-04 -0.34279518E-04
 -0.36084037E-04 -0.31035512E-04  0.24023257E-04  0.11254333E-04  0.73965504E-05
  0.10416024E-04  0.30136169E-05  0.31863563E-05  0.55615356E-06  0.10042724E-05
 -0.20858173E-05 -0.76943317E-06  0.80267475E-05 -0.15605648E-05 -0.21048183E-05
 -0.55007870E-05 -0.33620287E-05  0.15910241E-04 -0.17438181E-04 -0.37510048E-04
  0.28014335E-04 -0.62354385E-05  0.20434959E-04  0.53997251E-05 -0.54689938E-04
  0.52530424E-06  0.55102065E-06  0.18309852E-05  0.60780962E-06 -0.31519726E-05
  0.14154903E-05 -0.12305303E-05  0.46821402E-06 -0.10889228E-05 -0.31017002E-05
 -0.35466529E-05  0.23669376E-04 -0.57049194E-05  0.18865903E-04 -0.70157811E-05
 -0.86179694E-05 -0.36790955E-05 -0.65151045E-05  0.48054518E-07 -0.65842209E-06
  0.36467197E-05 -0.38721116E-06  0.14335906E-05 -0.22873096E-05  0.94491425E-07
 -0.16709240E-05 -0.44261134E-05 -0.59579152E-06 -0.35451564E-05 -0.11303125E-05
 -0.22790771E-05  0.40678488E-05  0.15431543E-05  0.51159186E-06  0.22511491E-06
 -0.13571900E-05  0.50772542E-06 -0.17027225E-05 -0.13677351E-05 -0.21857472E-05
  0.30966839E-06  0.18157925E-05  0.86072088E-06  0.14445961E-06  0.20199252E-06
  0.14910168E-05  0.14052160E-05  0.10918765E-06  0.38300232E-06  0.42513833E-05
 -0.47248500E-06  0.12650388E-05 -0.12880168E-06  0.79396218E-06  0.18925893E-05
 -0.49820768E-06  0.23785807E-05 -0.97438003E-06  0.23048132E-06 -0.76146510E-06
  0.20499088E-05 -0.22896715E-05  0.28069188E-05  0.65579110E-05 -0.12154257E-04
  0.15857611E-04 -0.39694829E-05  0.87533183E-06 -0.43546697E-06  0.83266317E-05
  0.11476414E-04 -0.13969297E-04 -0.22211083E-06  0.39238565E-08  0.25359025E-06
  0.70130065E-06 -0.84316005E-06  0.96966984E-06  0.52444223E-06  0.50120383E-06
  0.16181264E-05 -0.14297068E-04  0.92044721E-05  0.10263287E-05 -0.13160628E-04
  0.37547613E-05  0.15985842E-04  0.15361090E-04  0.20811909E-04 -0.14663198E-05

  0.98837136E-05 -0.11137088E-04 -0.54292395E-05  0.10104650E-04 -0.75526981E-05
  0.71525684E-07 -0.24623992E-07  0.11163425E-04 -0.17054154E-04 -0.35301928E-05
 -0.45173740E-05 -0.11979639E-04  0.10750364E-05 -0.12938160E-05  0.13060064E-05
 -0.65722908E-05  0.13138474E-04 -0.63298081E-05 -0.10203442E-03 -0.80800916E-04
  0.78646139E-04 -0.86199044E-03  0.20881591E-03  0.40191514E-03 -0.18757567E-04
  0.91358101E-04 -0.45733424E-04  0.29763282E-05  0.40020260E-06 -0.72632604E-05
 -0.16419303E-04  0.27492474E-05 -0.71675236E-05 -0.11377529E-04 -0.86248290E-05
  0.80518087E-05 -0.15637325E-03 -0.14427289E-03 -0.11398706E-03 -0.15624206E-03
  0.16317444E-03  0.10362603E-03  0.74000277E-04  0.46507114E-04  0.15894825E-03
  0.18107293E-05 -0.25960238E-05 -0.65062207E-05  0.19545517E-04  0.85971368E-06
 -0.11964402E-04  0.75993098E-05  0.10366178E-04  0.21149979E-05 -0.16098674E-04
 -0.47438522E-05  0.43630137E-05  0.41178572E-05 -0.12622175E-04  0.85883923E-05
  0.19540952E-05 -0.44673064E-05 -0.20589566E-05 -0.16869721E-05  0.52840250E-05
 -0.14409466E-04 -0.14348154E-05 -0.63690326E-05 -0.52511373E-05 -0.46272365E-06
 -0.10537656E-05 -0.10990696E-05 -0.25795372E-05 -0.33717340E-05 -0.49968358E-05
 -0.14059743E-04 -0.83173172E-06  0.32033465E-04 -0.65826737E-05 -0.41073967E-05
  0.25290869E-07 -0.39764587E-04  0.35870526E-04 -0.14264190E-03 -0.12812483E-03
 -0.50906837E-04  0.14340488E-03 -0.32701725E-04  0.44182695E-04 -0.46408570E-04
  0.23214158E-02 -0.38708460E-03 -0.52691320E-03 -0.32065840E-03  0.41143901E-03
  0.31712115E-04  0.54528512E-04  0.93977300E-03 -0.22720536E-03  0.14087704E-04
  0.52609725E-04 -0.14773886E-04  0.18223584E-04  0.17620432E-04 -0.69485593E-05
  0.19722404E-04 -0.36125596E-05 -0.28136078E-04 -0.20501676E-03  0.28580061E-03
  0.27441121E-03 -0.95552371E-04 -0.12118956E-04 -0.12290675E-03  0.32654948E-04
  0.16036715E-03  0.25353557E-03 -0.11624944E-04  0.49325874E-05  0.19575737E-04
 -0.48863505E-05  0.22789233E-04 -0.13717004E-04 -0.23177485E-05 -0.87614211E-05
 -0.22827531E-05 -0.16353847E-03 -0.85044632E-04 -0.32340353E-04  0.11549153E-03
  0.33423556E-03 -0.22702791E-04 -0.27314668E-03  0.48052935E-04 -0.92378203E-05
 -0.67669209E-06 -0.12460838E-04 -0.11195400E-05  0.30978609E-04 -0.11743933E-04
 -0.31759277E-04 -0.69014121E-05  0.80292926E-05  0.41292685E-05 -0.34213990E-04
  0.73018964E-04 -0.80055779E-04  0.61799135E-04 -0.21326040E-03  0.16881043E-03
  0.57321387E-04 -0.22522389E-03 -0.15498740E-03  0.19486584E-04  0.43825896E-05
 -0.80357029E-05  0.12245871E-04  0.25239917E-04 -0.20965864E-04 -0.66150992E-05
 -0.59580402E-05 -0.33187947E-06  0.42387780E-05  0.14279880E-04  0.17915397E-04
 -0.82740209E-05  0.19185748E-04 -0.82950182E-05 -0.30263595E-05 -0.16034949E-04
  0.52312481E-05 -0.29121602E-05  0.12795510E-04  0.11309482E-04  0.21124665E-04
 -0.17162003E-04 -0.32167687E-05  0.19772433E-05  0.34676207E-05  0.53783075E-05
  0.72842132E-06 -0.22398178E-06  0.20606950E-04  0.49791100E-05  0.48220120E-05
 -0.11997454E-04 -0.14416716E-05 -0.64093327E-05 -0.22406709E-05 -0.57948040E-05
 -0.64734848E-05 -0.40588581E-05 -0.16376287E-04  0.88793248E-05 -0.44637669E-05
  0.10794194E-05 -0.27363208E-05  0.16416918E-04  0.47866674E-04 -0.35171781E-04
 -0.63975810E-04  0.36471809E-04  0.98407739E-05  0.19473242E-03 -0.11711579E-03
  0.50010619E-04  0.22410730E-03 -0.13338314E-04 -0.98693689E-05  0.12444196E-04
  0.17479829E-05  0.20167910E-05  0.14170328E-04  0.60202858E-05  0.55541429E-05
  0.65479543E-05 -0.23021794E-03 -0.13422521E-03  0.19164334E-03  0.31916876E-04
 -0.95222218E-04 -0.10299699E-03  0.32525979E-04 -0.16213066E-03  0.96507309E-05

  0.12836002E-04 -0.16363912E-04  0.24861454E-04 -0.16865013E-04 -0.21338320E-04
  0.93083919E-05  0.13765633E-04 -0.10186136E-04 -0.56876231E-05 -0.11269909E-04
  0.40334459E-04 -0.43659355E-05  0.16921858E-04 -0.68336410E-06 -0.16833148E-05
 -0.27404889E-04 -0.14668357E-04 -0.13272241E-04  0.30996807E-03  0.57903424E-04
 -0.16156505E-03  0.30254151E-03  0.23119521E-03 -0.25907449E-03  0.30995962E-03
 -0.11843144E-03  0.18050936E-04 -0.31573402E-05 -0.66845511E-05  0.96444853E-05
  0.11611674E-04  0.34736822E-06  0.18784164E-04 -0.50706533E-05  0.12010799E-04
  0.36842944E-04  0.15836127E-03 -0.21006170E-03  0.20598219E-03  0.18722213E-03
 -0.13767855E-03 -0.73835128E-04 -0.24270736E-04  0.23389736E-03  0.15792135E-03
  0.16253611E-04  0.26513941E-04  0.70973724E-06 -0.66307846E-06 -0.54735348E-05
 -0.12780741E-04 -0.57901838E-05 -0.21405967E-05 -0.31658009E-04 -0.24748017E-04
 -0.19246094E-04 -0.18127110E-04  0.73519313E-05 -0.12001563E-04 -0.77429778E-05
  0.28415669E-05 -0.26737461E-05  0.20110421E-05 -0.11358187E-04  0.16106412E-04
  0.63907986E-05  0.11759803E-05  0.42827840E-04  0.88146158E-05 -0.67987802E-05
  0.77960032E-05 -0.11287032E-04 -0.93681040E-05 -0.11410345E-04  0.47632184E-04
  0.19322569E-04 -0.46197031E-04 -0.16078388E-04  0.12059772E-04 -0.68955236E-05
 -0.10609180E-04  0.50901709E-04 -0.96348827E-04 -0.42157098E-04 -0.69302159E-05
 -0.71249471E-04  0.50190547E-04 -0.85744594E-04 -0.38963889E-04  0.12556495E-03
 -0.38708460E-03  0.42527637E-02 -0.28640743E-03  0.24723350E-03  0.15645033E-03
  0.13872916E-03 -0.39795944E-03 -0.18357980E-03  0.98811784E-03  0.11086163E-04
 -0.12333851E-04 -0.60959388E-05  0.33119665E-05  0.78106016E-04 -0.45172119E-04
  0.25349607E-04  0.18252205E-04 -0.68951333E-05  0.41442418E-03 -0.98131131E-05
 -0.23630125E-03 -0.18950858E-03 -0.33987219E-04  0.41111493E-03  0.19520315E-03
  0.10582930E-03 -0.27224320E-03 -0.31589447E-04 -0.44945542E-04 -0.15396821E-04
 -0.13702725E-04  0.19803408E-04  0.25251985E-04  0.11801130E-04 -0.14541538E-04
  0.28143867E-05  0.25930913E-03 -0.75903650E-03  0.12262533E-04  0.25855520E-03
 -0.18373075E-03 -0.90765633E-04  0.19851082E-03  0.15879229E-03  0.27522276E-03
 -0.15771923E-04 -0.77651304E-05 -0.17535787E-04  0.41708165E-06 -0.11209588E-04
 -0.73469858E-05 -0.70606558E-05  0.41521833E-05 -0.19209761E-04  0.88159525E-04
  0.75069662E-04 -0.14425732E-03 -0.23862107E-03  0.12097086E-02 -0.71376053E-04
 -0.10987738E-03  0.70998002E-04  0.37278101E-03  0.22582349E-04  0.29193624E-04
  0.63756702E-05 -0.56001899E-05 -0.27972333E-05  0.65639309E-05  0.30932938E-04
  0.11457665E-05 -0.24678420E-05 -0.15870066E-04 -0.35887218E-04 -0.23599708E-04
 -0.63996058E-05  0.32388256E-04  0.10166689E-04  0.19649329E-05  0.81680375E-05
 -0.12184246E-04  0.14086377E-04 -0.17165036E-04  0.33191445E-05 -0.74867297E-06
 -0.31791375E-05  0.14068002E-04 -0.18994662E-04  0.21757584E-05 -0.32632293E-04
 -0.51300726E-05  0.17810091E-04 -0.57371627E-05 -0.45584935E-05  0.27418971E-04
 -0.51307412E-05  0.47026440E-07 -0.12766096E-04  0.12357055E-04  0.24481686E-06
  0.47761062E-05 -0.37924929E-04  0.62567590E-06 -0.36153541E-04  0.14234501E-04
 -0.15328483E-04  0.45748031E-05 -0.33800721E-05 -0.23433626E-03  0.14882616E-03
  0.33041693E-04 -0.48870872E-04 -0.68159267E-04 -0.54559834E-03 -0.12212441E-03
  0.18136698E-03  0.19265913E-03 -0.89484247E-06  0.31727790E-04  0.24166270E-04
  0.10864958E-04  0.82998014E-07  0.60444716E-05 -0.67553167E-05 -0.85831273E-05
 -0.35272903E-05 -0.18685128E-04 -0.53354372E-04 -0.53535490E-03 -0.25322780E-03
  0.46655810E-04  0.25366677E-03 -0.22782932E-04  0.14059434E-03  0.78074153E-05

  0.73510486E-05  0.14961218E-04  0.22341695E-04 -0.80089919E-05 -0.42744613E-05
  0.10849507E-05 -0.52552777E-05 -0.11394195E-04  0.18876468E-04  0.12821801E-04
  0.77464741E-05 -0.46315194E-04 -0.10873566E-04 -0.76397841E-05  0.18122858E-04
  0.96143802E-06 -0.64207708E-05 -0.35127631E-05 -0.71741936E-04 -0.50647956E-04
 -0.18650381E-03  0.94400647E-03 -0.26726288E-03 -0.44099026E-03  0.88542543E-04
 -0.89316214E-04  0.15592270E-04 -0.14568790E-04  0.44087602E-05  0.22514773E-05
 -0.91509949E-05 -0.80324028E-06 -0.68044713E-05  0.10147336E-04  0.32460268E-05
 -0.87155439E-05  0.23840518E-04  0.16619223E-03 -0.88090431E-04  0.95252417E-04
  0.18754656E-03  0.58119553E-04  0.72080673E-04  0.18119281E-03  0.44456365E-04
 -0.90887785E-05 -0.16899952E-05  0.83909704E-05 -0.12809063E-04  0.60497466E-05
  0.66449166E-06 -0.51648267E-06  0.71596691E-05  0.90816352E-05 -0.66947737E-07
 -0.76612562E-06 -0.18116639E-04 -0.78386724E-05 -0.49270105E-05  0.91685080E-05
  0.98601652E-05  0.38624522E-05  0.77721504E-05 -0.16045507E-04 -0.10094349E-04
 -0.81402967E-05 -0.52823783E-05 -0.44091588E-05 -0.42742444E-04  0.19479894E-05
 -0.15925533E-04  0.33657455E-05  0.11578883E-04  0.35466185E-04 -0.81856244E-05
  0.11062458E-04 -0.41704178E-05 -0.42932062E-04  0.23103727E-05  0.10472304E-04
 -0.25387352E-04 -0.15871720E-03 -0.72940318E-04  0.17916082E-03  0.86607618E-04
  0.10409230E-03 -0.18659896E-04 -0.13081896E-04  0.14557535E-03  0.73230561E-04
 -0.52691320E-03 -0.28640743E-03  0.43009828E-02 -0.93780057E-03 -0.95903535E-03
  0.15441713E-02 -0.52022309E-04 -0.62145512E-03  0.92082082E-04 -0.46777938E-04
 -0.59076583E-04 -0.11745232E-04 -0.15696382E-04 -0.57746919E-04  0.30155169E-04
 -0.29690256E-04  0.83604561E-05  0.44573486E-04  0.38414014E-04 -0.27872321E-03
 -0.15770997E-03  0.19681116E-03 -0.93397252E-04  0.48271213E-03  0.13026910E-03
  0.63483118E-04 -0.15520348E-03  0.13219163E-04  0.45212795E-04 -0.22915709E-04
 -0.71673194E-05 -0.51083681E-05  0.12577405E-04  0.15033540E-05  0.43012407E-05
 -0.13935117E-06 -0.95300454E-04  0.16979248E-03 -0.35345416E-04 -0.35784956E-03
  0.12382035E-03 -0.11319242E-03  0.21776595E-03  0.16394393E-03 -0.28379583E-03
 -0.74413296E-05 -0.45354202E-05  0.37830686E-04 -0.25908266E-04  0.48800070E-05
 -0.32420402E-05 -0.17103006E-06 -0.21784321E-04 -0.91865415E-06 -0.22316632E-03
 -0.14338662E-03  0.14217677E-03  0.23113360E-04  0.28572713E-04 -0.39586539E-03
 -0.94145416E-04  0.70357715E-04 -0.15319220E-04 -0.45565688E-05 -0.29483981E-06
  0.22483678E-04  0.76798551E-05 -0.21518839E-04 -0.22155419E-04 -0.64352131E-06
 -0.17649728E-04 -0.81652330E-05 -0.66120839E-05 -0.81801744E-07 -0.48321138E-05
 -0.11961077E-04 -0.21204022E-04 -0.19509664E-04  0.37651809E-06 -0.23820132E-05
  0.89291236E-05  0.16063416E-04  0.67969460E-05  0.67766813E-05 -0.17644395E-04
 -0.67576445E-05  0.25394565E-04 -0.34905661E-05  0.78810496E-05 -0.12951053E-04
  0.18908506E-04 -0.69127588E-05 -0.20671901E-04 -0.86219855E-05 -0.39868307E-05
 -0.22919543E-04  0.95523779E-05 -0.10411357E-04 -0.48364187E-05 -0.22683508E-05
  0.36113519E-05  0.55885505E-05  0.11814985E-04 -0.42667637E-05 -0.24000329E-04
 -0.17804521E-05 -0.36103521E-05  0.56981448E-05  0.42000691E-04 -0.59186995E-04
 -0.37996017E-03 -0.25432834E-03  0.34563715E-04  0.11202891E-02  0.26578949E-03
 -0.63906527E-04  0.24312185E-03  0.20856240E-04  0.69236721E-05 -0.11869329E-04
 -0.14171306E-04 -0.15623296E-04  0.21841174E-04 -0.57537182E-06  0.95850777E-05
 -0.80031591E-05  0.12990662E-03  0.16447386E-03 -0.50245908E-04 -0.26235894E-03
  0.62413154E-04 -0.45259560E-03  0.11424732E-03 -0.88988028E-04  0.26217821E-03

 -0.15867845E-05 -0.10926416E-04 -0.36398487E-06  0.16293600E-04  0.20950735E-05
 -0.14044405E-04 -0.20789747E-04 -0.27651774E-05 -0.74235380E-05  0.22408822E-04
 -0.93000297E-05  0.15791250E-04  0.28040484E-04 -0.16526254E-04 -0.23953343E-04
  0.90292620E-05  0.65160947E-05 -0.12284335E-04 -0.10016342E-03 -0.14916972E-03
 -0.48457924E-04 -0.14878896E-03  0.50076489E-04  0.95554092E-04  0.33007626E-03
  0.11266330E-03  0.21743191E-03  0.28391063E-05 -0.83991491E-05  0.30069773E-06
  0.17559802E-05  0.65208348E-05  0.24225410E-04  0.35879922E-05 -0.35292265E-05
  0.13313191E-04 -0.15963453E-04 -0.62554371E-04  0.48539881E-04  0.28629488E-03
 -0.26015731E-03  0.21372732E-03  0.12267379E-03  0.12053126E-03  0.15714106E-03
 -0.12232902E-04 -0.18309194E-04  0.11565725E-04 -0.45535708E-05  0.67172812E-07
  0.12991230E-04 -0.40522605E-05 -0.82544838E-06  0.25232677E-05 -0.72317362E-05
  0.65920975E-05 -0.54146705E-05 -0.98040869E-06 -0.43682411E-05 -0.16251816E-05
  0.94966469E-07 -0.25675991E-05 -0.67252734E-06  0.27185004E-04 -0.11122479E-05
  0.12254856E-05 -0.39061509E-04  0.90706372E-05  0.25069600E-04  0.15575274E-05
  0.26744534E-08 -0.13867663E-05 -0.20155634E-04 -0.30858352E-04 -0.60658866E-05
  0.57209116E-05  0.37840465E-04 -0.11505090E-04  0.93106767E-05  0.13177031E-04
  0.30875999E-04  0.18880202E-03  0.22846748E-04 -0.17756652E-04  0.13657669E-04
 -0.16077389E-04 -0.76978865E-04  0.29514117E-04 -0.14597766E-03 -0.14306173E-04
 -0.32065840E-03  0.24723350E-03 -0.93780057E-03  0.45771659E-02 -0.12531727E-02
 -0.31782258E-02 -0.27761000E-03 -0.63659243E-03  0.11507033E-03 -0.11008271E-04
 -0.60914406E-05  0.10676813E-04 -0.85467873E-05  0.58318059E-06  0.94697921E-05
  0.19841853E-04 -0.17093200E-05  0.34622081E-05 -0.14443404E-03  0.28516507E-04
 -0.39084436E-04 -0.18236820E-03  0.40651133E-04 -0.18821721E-03  0.82793689E-04
  0.63491377E-04  0.91991881E-04  0.62298648E-05 -0.24569615E-05 -0.11365404E-05
  0.46151980E-04 -0.41362161E-04 -0.79261972E-05  0.62335718E-05  0.24291086E-04
 -0.19962714E-05 -0.21742254E-04  0.13689935E-03 -0.15110813E-04 -0.52126411E-04
  0.26315648E-03  0.73396834E-05 -0.13680838E-03 -0.11983381E-04  0.12189346E-04
  0.57982898E-05 -0.11203920E-05 -0.23739899E-04  0.21078290E-04 -0.30134167E-04
 -0.19906267E-05  0.11595164E-04 -0.85668364E-05  0.10919682E-05 -0.16145736E-03
  0.50097543E-04 -0.43102708E-04  0.30596606E-04  0.21936178E-03 -0.38720378E-04
 -0.46123300E-04 -0.11337515E-05  0.68908430E-04 -0.35308269E-04 -0.17922956E-04
 -0.72375942E-05 -0.10903135E-04 -0.11460632E-06  0.84454015E-05  0.37878167E-05
 -0.11686515E-05  0.49910293E-05  0.12467631E-04  0.26122920E-04  0.57895103E-05
  0.10438634E-04  0.24586440E-05  0.13970990E-04  0.16161346E-04  0.35670874E-05
 -0.70506625E-05  0.96414974E-05  0.10646472E-04 -0.84878022E-05 -0.27906308E-04
  0.34189509E-04 -0.15202701E-05  0.14891593E-04 -0.91464206E-05  0.13586915E-04
  0.99637448E-05 -0.16695788E-04  0.37085515E-05  0.20896507E-04 -0.12424130E-04
  0.14552855E-04 -0.90406257E-05  0.49636843E-07 -0.16454054E-05 -0.11237711E-04
 -0.23538950E-04  0.58197160E-05  0.14407817E-04 -0.27037352E-04  0.24754301E-04
  0.24055817E-04  0.21825679E-04 -0.28042049E-05 -0.55702418E-04  0.11437486E-04
 -0.39976403E-03 -0.11306750E-03 -0.21611128E-03  0.11251345E-03  0.44813494E-04
  0.12207469E-03  0.83761549E-04  0.12472843E-04 -0.95920009E-05  0.13884546E-04
  0.10527916E-04  0.16052277E-04 -0.14834554E-04  0.19354498E-05 -0.71264118E-06
  0.19648349E-05 -0.47659103E-04  0.13548141E-03  0.45358234E-04  0.45907320E-03
 -0.77563643E-04 -0.93956517E-04  0.64139161E-04 -0.89516109E-04 -0.13822551E-03

  0.95256112E-05  0.23543001E-04  0.70337132E-05  0.76496915E-05 -0.31098485E-04
  0.15744180E-04 -0.87444147E-05  0.10888988E-04 -0.20486928E-06 -0.27537027E-04
  0.52081594E-04 -0.15318840E-05 -0.84894674E-05  0.64945284E-04 -0.20473743E-04
  0.99983132E-05 -0.65955942E-05 -0.99543921E-08  0.48254562E-03  0.30186414E-03
  0.45017477E-03  0.30631922E-03  0.16293858E-03  0.44614707E-04  0.19290242E-03
  0.19962624E-03 -0.38573744E-03  0.50669505E-05  0.32174793E-05 -0.30964577E-04
  0.24713258E-04 -0.47331734E-04  0.13028954E-04 -0.27223575E-04  0.17917356E-04
 -0.18617895E-04  0.11514898E-04  0.19708491E-03  0.22139116E-03 -0.14729427E-03
  0.33288650E-03 -0.19352375E-03  0.41805522E-04 -0.12565145E-03 -0.11586303E-04
  0.31558153E-04  0.33050512E-04 -0.15109469E-04  0.21582104E-05  0.63601513E-04
  0.33163329E-05  0.27466728E-04 -0.10576966E-04 -0.15529218E-04 -0.63594210E-05
  0.12567974E-04 -0.15899857E-05  0.14429032E-04 -0.14222388E-04  0.65995181E-05
 -0.24021876E-04 -0.71165214E-05 -0.11294407E-04 -0.11892171E-04 -0.18491997E-04
 -0.48944290E-05  0.33959669E-04 -0.41934973E-05  0.34784932E-05 -0.23784554E-05
  0.50980632E-06 -0.17177256E-05  0.84961419E-06  0.62934310E-05 -0.71611625E-05
  0.42430942E-05 -0.92989385E-04  0.48523984E-04 -0.27816743E-04 -0.15640149E-04
  0.15103555E-05  0.76415142E-04  0.73683105E-04 -0.13471796E-03 -0.53317806E-04
 -0.11645342E-03  0.64370583E-04  0.44998460E-04 -0.49115893E-04 -0.71285262E-04
  0.41143901E-03  0.15645033E-03 -0.95903535E-03 -0.12531727E-02  0.73535499E-02
 -0.19018314E-02 -0.66320972E-03  0.83937597E-03 -0.29785611E-03 -0.15473554E-04
  0.68885547E-04 -0.23129911E-04 -0.16975886E-04  0.61184607E-04  0.27708767E-04
  0.57998010E-05  0.69204709E-05 -0.44051924E-04  0.65451036E-03 -0.13353567E-03
 -0.18328333E-03 -0.34390470E-04  0.15277613E-03  0.82102566E-03  0.76630972E-04
  0.97841853E-04  0.99821687E-04 -0.54649899E-04  0.51551151E-05  0.11118116E-05
 -0.18245696E-04  0.95802932E-04 -0.11773414E-04 -0.11572534E-04 -0.19586843E-04
 -0.42181036E-04  0.35299177E-03 -0.11391917E-02 -0.12010149E-03  0.39169103E-03
 -0.83808472E-03  0.34698622E-03  0.27357387E-03 -0.90225654E-04 -0.28693345E-03
  0.78838137E-05 -0.25687871E-04 -0.52490647E-05  0.18525196E-04 -0.22161930E-05
  0.25884971E-04 -0.75253271E-06  0.40098825E-05 -0.41912447E-06  0.84092249E-04
  0.18941363E-03  0.27010830E-03 -0.16208957E-04 -0.53287233E-03  0.25309226E-03
 -0.12322720E-03  0.16072899E-03  0.32682472E-03  0.15992718E-04  0.61646246E-04
 -0.97921704E-05  0.33479743E-05  0.67427579E-04 -0.35348565E-04  0.29989103E-04
  0.82599009E-05 -0.19140385E-05 -0.17366833E-04 -0.50013089E-04 -0.22190875E-04
 -0.49534574E-07  0.15505734E-04  0.13494721E-04 -0.30377708E-04 -0.11378492E-05
  0.71859163E-05  0.21244228E-05 -0.11616772E-04  0.66976802E-05  0.29825588E-04
 -0.37353562E-04  0.18614807E-06  0.82786703E-05  0.17689886E-04  0.30081600E-05
 -0.15634521E-05 -0.50942015E-05 -0.11677252E-05 -0.12585691E-04  0.12148413E-04
 -0.17360425E-04 -0.25472136E-05  0.30492852E-05  0.32791003E-04  0.19260363E-04
 -0.32487532E-05 -0.29547463E-04 -0.58699307E-05  0.54350608E-04 -0.68410759E-06
  0.17272599E-04 -0.12513018E-04 -0.23234602E-04 -0.35228252E-03  0.59062238E-04
  0.79146310E-03 -0.88419792E-04  0.73217227E-03 -0.67639953E-03 -0.15185755E-03
 -0.53222308E-04 -0.45014760E-04 -0.12961516E-04  0.10148036E-04  0.23701088E-05
  0.83857410E-05 -0.52405589E-04  0.23487855E-04 -0.14430937E-04  0.41131984E-05
  0.12835372E-04 -0.38726676E-04  0.14132816E-04 -0.53202397E-03 -0.46908855E-03
  0.31145473E-04  0.63323292E-03 -0.13975290E-03  0.16038533E-03 -0.20088265E-03

 -0.17376530E-04  0.33910382E-04  0.35244682E-04 -0.13206643E-04 -0.76117609E-05
 -0.30385893E-04  0.15575421E-04 -0.19911062E-05  0.30773592E-04  0.21422177E-04
 -0.16948150E-04  0.24452834E-04 -0.39892382E-04 -0.13728719E-04  0.79449143E-04
 -0.18421461E-04 -0.23097723E-04 -0.12486977E-04  0.16768097E-03 -0.11151544E-03
 -0.11568012E-03 -0.62832408E-03 -0.18880201E-03  0.39473416E-04 -0.35821211E-03
 -0.45006355E-03 -0.12011747E-03 -0.50902952E-05  0.23359380E-05  0.55990196E-04
  0.21864351E-04  0.32464418E-05 -0.96055054E-04  0.83535309E-05 -0.70387810E-05
 -0.94363841E-05  0.14748031E-04  0.17303536E-04 -0.35761034E-03 -0.11404953E-04
  0.28839108E-03 -0.91936495E-04  0.18653823E-03  0.23844081E-03  0.70324693E-05
 -0.33246252E-04 -0.14050639E-05  0.67084780E-05 -0.46452661E-05 -0.76633059E-05
 -0.44065792E-04 -0.42459326E-05 -0.32459171E-05 -0.35228517E-05  0.48433513E-05
 -0.74668060E-05  0.14139350E-04 -0.59308921E-05  0.24242765E-04 -0.11371675E-04
  0.92972799E-05  0.11850449E-04 -0.53608373E-05 -0.38150384E-05  0.11523889E-04
  0.18463644E-04 -0.35075059E-05  0.22977642E-04 -0.80314569E-04 -0.57871675E-05
 -0.12570378E-04  0.11696164E-04  0.23566780E-04  0.49769464E-04  0.52235028E-04
  0.15807124E-04 -0.56787770E-04  0.98308932E-05 -0.33261538E-05  0.22949336E-04
 -0.83587898E-04 -0.25391952E-03 -0.92813378E-04  0.61784609E-04 -0.36451739E-05
  0.13826870E-04  0.23499520E-03 -0.57593330E-04  0.12502645E-03  0.12244565E-03
  0.31712115E-04  0.13872916E-03  0.15441713E-02 -0.31782258E-02 -0.19018314E-02
  0.10400524E-01  0.61974567E-04 -0.51165021E-03  0.14926775E-03 -0.39962673E-05
 -0.37694698E-04  0.27940948E-04 -0.33472444E-05 -0.14999050E-04  0.37511683E-07
 -0.81855056E-05 -0.68093120E-05 -0.37337253E-04 -0.49604843E-04 -0.12864828E-03
  0.18458135E-03 -0.68392096E-03  0.27959680E-03 -0.19190317E-03 -0.64705947E-04
  0.30856801E-03 -0.33203084E-03  0.29184322E-05  0.10771366E-04  0.27091761E-04
 -0.36895694E-04  0.31378173E-04 -0.12699747E-04  0.19949465E-04 -0.10571865E-05
  0.26078175E-04  0.41518988E-04 -0.31687887E-04  0.14652375E-03 -0.13063216E-03
 -0.19869340E-03 -0.51334714E-03  0.23615246E-03  0.13982914E-03  0.36054159E-03
 -0.68640746E-05  0.40485930E-04  0.50619317E-04 -0.19353490E-04  0.42295097E-04
 -0.47801236E-04 -0.23287769E-04  0.48806981E-04 -0.10604827E-04  0.11076018E-03
 -0.87627388E-04 -0.68600850E-03  0.12893217E-03 -0.67443169E-04 -0.84837420E-03
 -0.33071508E-04 -0.19295936E-03 -0.45139548E-03 -0.89511187E-05 -0.10488032E-04
  0.41787960E-04 -0.13645756E-04 -0.23742348E-05  0.17986283E-04 -0.11092949E-06
 -0.19931225E-04 -0.27363398E-05 -0.75912610E-05 -0.26361880E-04  0.13235049E-04
 -0.16220400E-05 -0.20191230E-04 -0.15217551E-04 -0.11271633E-04  0.78837417E-05
  0.25788671E-04  0.19944664E-04 -0.44238236E-05 -0.45735561E-05 -0.68480317E-05
 -0.17846590E-04  0.39028185E-04 -0.13782288E-04 -0.26902817E-04 -0.83142225E-05
  0.25541832E-05  0.32329882E-04 -0.29848871E-04 -0.45853961E-05  0.73199120E-05
  0.18370222E-04  0.10297226E-04 -0.25947213E-04  0.11451134E-04 -0.32842967E-04
 -0.41548157E-04 -0.66423707E-05 -0.17159610E-04  0.20405109E-04 -0.48132534E-04
 -0.17271837E-04 -0.18705933E-04 -0.18136417E-04  0.86114423E-04 -0.34645218E-03
  0.13996855E-03 -0.18339042E-03  0.20359834E-03 -0.12581016E-02  0.31971152E-04
  0.40243392E-03 -0.43348316E-03 -0.14335020E-04  0.11803667E-04 -0.39633188E-04
  0.55330414E-05 -0.33694775E-04  0.32061369E-04 -0.10197738E-04  0.10581287E-04
 -0.42331518E-06  0.12605535E-04 -0.12465403E-03  0.19868954E-03  0.55172613E-04
  0.45508826E-04 -0.42582763E-03  0.39754442E-04  0.22304998E-03  0.41701365E-04

  0.40961906E-05 -0.35089705E-05 -0.70003605E-05 -0.16818811E-04 -0.16957901E-04
  0.22296011E-04 -0.17906563E-05  0.25021369E-05  0.35177167E-05  0.38476928E-05
 -0.48400491E-05  0.15181765E-04 -0.60913899E-05 -0.16102770E-04  0.90370060E-05
  0.17117982E-04  0.17650172E-04 -0.27840601E-05 -0.51504768E-03 -0.18594812E-03
 -0.16587175E-03  0.61568314E-04 -0.27791411E-04 -0.32722147E-04 -0.11016971E-03
  0.37088712E-04 -0.96591669E-05 -0.15830880E-05  0.14001932E-04  0.61006142E-05
 -0.12049318E-04  0.22127097E-04 -0.68099402E-05  0.41416717E-05 -0.52620019E-05
  0.81828044E-05  0.56226244E-04  0.13470290E-04 -0.90968746E-05 -0.17192506E-03
  0.52109937E-04  0.29478861E-03  0.27240115E-04  0.75975788E-04 -0.14780777E-04
  0.19413731E-05 -0.94092235E-05  0.84641516E-05  0.71187967E-05  0.15975554E-05
 -0.46283650E-05 -0.59214260E-05  0.59336193E-05  0.79702165E-05 -0.14622147E-05
 -0.17865756E-04  0.58787171E-06 -0.31451054E-05 -0.10733905E-04 -0.52412675E-05
 -0.16613719E-04  0.29122509E-05 -0.12757643E-04 -0.97421719E-05 -0.81306438E-05
 -0.15703071E-04 -0.13744228E-04  0.82787630E-06 -0.17319763E-05 -0.34718943E-05
  0.60730925E-06  0.16454026E-06  0.77694788E-05 -0.19520909E-04 -0.86093810E-05
 -0.11898867E-04 -0.43306964E-05  0.65485847E-06 -0.98665157E-05  0.98534694E-06
  0.10671382E-05 -0.19115346E-05  0.72616588E-04  0.63708397E-04  0.15419147E-04
  0.10611166E-03 -0.76403641E-04  0.10074944E-04 -0.17163245E-04 -0.97281744E-04
  0.54528512E-04 -0.39795944E-03 -0.52022309E-04 -0.27761000E-03 -0.66320972E-03
  0.61974567E-04  0.24575985E-02 -0.29564631E-03 -0.75277188E-03 -0.81855954E-05
 -0.15149747E-04 -0.25525312E-06  0.25219651E-04 -0.60651860E-04  0.48124634E-05
 -0.23695602E-04  0.64650738E-05  0.25496738E-05 -0.20768275E-04 -0.19077549E-04
 -0.90667351E-05 -0.41321423E-03 -0.12939374E-03 -0.86035436E-04 -0.57654386E-04
 -0.91014990E-04  0.58391944E-04 -0.87951697E-05  0.86398238E-05  0.15886179E-04
 -0.64705588E-07  0.20746505E-05 -0.93503725E-05  0.81189921E-05 -0.25097300E-06
  0.63172022E-05 -0.18995281E-04  0.16724230E-03 -0.18464448E-03 -0.10001987E-03
 -0.46610160E-04  0.73682875E-04  0.18488657E-03 -0.14684026E-04  0.13585774E-03
  0.52381940E-05  0.10409063E-04 -0.14829826E-05 -0.24067826E-05  0.73662867E-05
 -0.11505178E-05  0.14477373E-04  0.93216113E-05 -0.10077402E-04  0.75044054E-04
 -0.14726859E-04 -0.16183720E-03 -0.12720673E-05  0.68149608E-04  0.26436233E-05
 -0.35750948E-05 -0.48506106E-04 -0.21559449E-03  0.88551241E-05 -0.12673608E-04
 -0.10522756E-04  0.26773820E-05 -0.13921707E-04  0.16588007E-04  0.17237122E-04
 -0.39290361E-05  0.63688079E-05  0.16832818E-04  0.25236697E-04  0.12073536E-04
 -0.25338087E-06 -0.92000369E-05 -0.34802263E-05 -0.10385746E-04 -0.11674097E-04
  0.82018889E-05  0.57252311E-05  0.86272873E-06 -0.82903238E-05  0.17022749E-04
 -0.54656944E-05 -0.11904799E-04 -0.93875626E-05  0.55637461E-06  0.79846887E-05
 -0.82087543E-05 -0.12107955E-04  0.15904366E-04 -0.37938700E-05 -0.82127823E-05
  0.14020218E-04 -0.87757100E-05 -0.69079123E-05 -0.17753059E-04 -0.18905340E-04
  0.29558499E-05  0.13307907E-04  0.42135400E-05  0.22822227E-04 -0.14956641E-04
 -0.60662379E-05 -0.13663205E-05  0.19144140E-05  0.16521177E-03 -0.19764103E-03
 -0.19037767E-03  0.45914609E-04  0.30870950E-03 -0.52451124E-04 -0.58770670E-04
  0.12087334E-03  0.13592243E-03 -0.84953089E-05 -0.48300060E-05 -0.10168182E-05
  0.97536126E-05  0.45045556E-05 -0.19169616E-04 -0.46899898E-05 -0.20179535E-05
 -0.19134226E-05 -0.71534172E-04 -0.19219364E-04  0.23851246E-03  0.28781676E-03
 -0.13543790E-04 -0.21192466E-03 -0.26667966E-04 -0.45254289E-04  0.29107426E-04

  0.18512249E-04  0.18664238E-05 -0.11660685E-04  0.94385199E-06  0.99292580E-05
  0.79641408E-05  0.36446930E-05 -0.92953023E-05 -0.74022475E-05 -0.46600580E-05
 -0.19407691E-04 -0.21724947E-05  0.10164429E-04  0.23068011E-04 -0.17407915E-04
 -0.11730502E-04  0.39509049E-05 -0.40546429E-05  0.10423839E-03 -0.10250616E-03
  0.18739570E-03 -0.37213134E-03  0.34368976E-03  0.77081307E-04  0.82159257E-05
 -0.42837291E-04  0.48677712E-05  0.11940405E-04  0.50400430E-05 -0.18965698E-04
  0.13535957E-04  0.54011314E-05  0.24322439E-05 -0.18540600E-05  0.57646537E-05
  0.19504316E-05 -0.16638382E-04  0.11435337E-04  0.13218350E-03  0.51888694E-04
  0.14453884E-03  0.11395095E-03  0.23169219E-04  0.18455532E-03  0.15868044E-03
  0.14893958E-04 -0.37623572E-05 -0.15682577E-04  0.58818689E-05 -0.12857067E-04
  0.89114872E-05 -0.53864439E-05 -0.17314100E-05 -0.23859031E-05  0.45748937E-05
 -0.26982904E-05  0.76964537E-05 -0.66076309E-06  0.13315120E-04  0.73263545E-05
 -0.34874564E-05 -0.53778140E-05 -0.14208506E-05 -0.61386177E-05  0.23651001E-05
 -0.57676663E-05  0.78712434E-05 -0.40535818E-06 -0.37949796E-05  0.42772044E-05
 -0.21458527E-04 -0.39287033E-05 -0.11075084E-04 -0.12469820E-04 -0.17059281E-05
  0.34433167E-05  0.76754631E-06  0.36831993E-04  0.32311823E-05  0.56201075E-06
  0.96001220E-06 -0.54375378E-04  0.72432578E-04 -0.14922904E-03 -0.17558573E-03
 -0.64684411E-04  0.11342217E-03 -0.35734305E-04  0.58454499E-04 -0.54143715E-04
  0.93977300E-03 -0.18357980E-03 -0.62145512E-03 -0.63659243E-03  0.83937597E-03
 -0.51165021E-03 -0.29564631E-03  0.32158193E-02 -0.40165602E-03  0.22373770E-04
  0.18456340E-04 -0.27694531E-04  0.13895036E-04  0.32545413E-04 -0.21316430E-04
  0.16375404E-04 -0.73812118E-05 -0.10014938E-04 -0.46485506E-05  0.11282847E-03
 -0.11804757E-03  0.40856062E-04 -0.24696569E-04  0.66622716E-05 -0.12059802E-03
 -0.44519608E-04  0.59529562E-04 -0.66736382E-06 -0.66349231E-05  0.13260356E-04
  0.17375901E-04  0.43084604E-05 -0.29986458E-06 -0.62606515E-05 -0.49569269E-05
 -0.64422394E-05 -0.27975476E-05 -0.10483917E-03  0.38384615E-04  0.91320523E-04
  0.17762954E-03  0.17426609E-05 -0.89754582E-04 -0.10148688E-03  0.38936883E-04
  0.68299215E-05 -0.34937233E-05  0.65109389E-05 -0.26094368E-04  0.16679451E-04
  0.26284431E-04 -0.30169932E-05 -0.17522641E-04 -0.13194854E-04 -0.22904794E-03
 -0.94664000E-04  0.17559788E-03  0.35867428E-04  0.62750858E-04 -0.64340908E-04
 -0.39613719E-04 -0.92345531E-04  0.19641398E-04  0.51329251E-05  0.10300580E-05
 -0.45843505E-04  0.66198704E-05  0.31752117E-05 -0.11703615E-04  0.51700125E-06
 -0.29625510E-05  0.20254459E-04  0.28190673E-05  0.15113531E-04  0.94950233E-05
  0.66260486E-05  0.88815829E-05  0.10344015E-04  0.38838763E-05 -0.33886997E-05
 -0.84365512E-05 -0.11356017E-04 -0.17783929E-04  0.17717271E-04 -0.68812172E-05
  0.13565089E-04 -0.22320322E-04 -0.26336210E-05  0.50846692E-05 -0.68901291E-06
 -0.87245804E-05  0.34135312E-05  0.27133210E-04 -0.11286369E-05  0.84264172E-05
 -0.19790476E-04  0.12561240E-05  0.49914534E-05  0.11066824E-05 -0.40621649E-05
  0.71090550E-05 -0.32188462E-04  0.50619593E-05 -0.42811359E-05  0.10914589E-04
 -0.16874426E-05  0.56110826E-05  0.14045040E-04 -0.37891855E-04  0.97499643E-04
 -0.16926720E-03  0.17990579E-03 -0.82874068E-04  0.29562691E-06 -0.98058233E-04
 -0.25126358E-05 -0.14416336E-03 -0.87927159E-06  0.40925106E-05  0.66159794E-05
  0.48322306E-05  0.32122409E-05  0.17782835E-04 -0.12241542E-05  0.11742008E-04
 -0.69596096E-05 -0.72492926E-04 -0.12480349E-03  0.83547313E-04 -0.78348227E-04
 -0.88467533E-04  0.31549610E-03 -0.10967177E-03 -0.75677475E-04  0.11284167E-04

  0.54809874E-05  0.33814692E-05 -0.95484808E-05 -0.84460799E-06  0.30488465E-04
  0.71956038E-05  0.14634851E-04  0.20173727E-04 -0.13850542E-04  0.11349233E-04
  0.18040402E-04 -0.82764115E-05  0.96801269E-06  0.24948679E-04 -0.24150509E-05
  0.87986298E-05 -0.11146563E-04  0.59710093E-04 -0.10965486E-03  0.13143397E-03
 -0.42605764E-03  0.65378873E-03 -0.33728903E-03 -0.23384241E-03 -0.46674798E-03
 -0.61412560E-04 -0.23654446E-03 -0.10587721E-04 -0.18639445E-05  0.16556054E-05
 -0.93457964E-05 -0.96579953E-05  0.39232217E-05 -0.54231501E-06 -0.49474963E-05
 -0.17544409E-05  0.31511777E-04  0.91652812E-04  0.15993967E-03  0.42852271E-04
  0.60099915E-04 -0.62956792E-04  0.31895874E-04  0.13284334E-03 -0.63343782E-04
  0.27600053E-05  0.16702879E-04  0.26521876E-05  0.74618220E-05  0.88496067E-06
 -0.12985721E-04  0.14790565E-04  0.38560827E-05  0.13266482E-05  0.13439120E-04
 -0.16418222E-04 -0.13436160E-04  0.15154926E-04  0.42641142E-07 -0.22741249E-04
 -0.86341978E-05 -0.32339422E-05  0.21943688E-05 -0.10809941E-04  0.13764436E-04
  0.12939145E-04 -0.76994722E-05 -0.77844237E-05  0.11733231E-04  0.26851996E-05
 -0.81083892E-05 -0.40018412E-05 -0.19164501E-05  0.53620345E-04  0.16802459E-05
  0.19216243E-04 -0.10613585E-04 -0.38037044E-04 -0.58348313E-05 -0.21503123E-04
 -0.91261103E-05  0.45416146E-04 -0.20750584E-03 -0.39628301E-04 -0.13595744E-05
 -0.21310837E-03  0.46967810E-04 -0.13742895E-03 -0.44624826E-04  0.17680393E-03
 -0.22720536E-03  0.98811784E-03  0.92082082E-04  0.11507033E-03 -0.29785611E-03
  0.14926775E-03 -0.75277188E-03 -0.40165602E-03  0.54210227E-02  0.33741930E-05
  0.39716311E-04  0.13602110E-04 -0.17426606E-04  0.67995895E-04 -0.45597425E-04
  0.18609827E-04  0.50693045E-05  0.10373221E-04 -0.56546553E-04 -0.64020593E-04
 -0.14134166E-04  0.73581168E-05  0.27595871E-03 -0.14893564E-03  0.13401313E-03
 -0.28416110E-03 -0.59215098E-05  0.19239721E-04  0.49134678E-04 -0.50008517E-04
  0.16379900E-04 -0.19238080E-04  0.45959291E-05 -0.18005885E-04 -0.13191524E-04
 -0.14881318E-04  0.17659534E-04  0.13913883E-03 -0.24866343E-03 -0.43364852E-03
 -0.31453488E-04 -0.13045454E-03  0.26472152E-03  0.22022766E-03  0.60303216E-04
  0.26754029E-05 -0.24375297E-04  0.22392227E-04  0.72169611E-05 -0.27423927E-04
  0.28458701E-05 -0.14471689E-04  0.27692877E-05  0.32247997E-05 -0.20265564E-04
 -0.49450885E-04  0.13173066E-03 -0.46149353E-04  0.27420481E-04  0.41564619E-04
 -0.28711354E-04  0.14085064E-03  0.16442303E-03 -0.13824699E-04 -0.33367626E-04
  0.22693112E-04 -0.57462251E-05  0.11825431E-04 -0.18481381E-04  0.28712134E-05
  0.43578064E-05 -0.10553220E-05  0.14813229E-04 -0.31316542E-04 -0.95307420E-05
 -0.28263919E-05 -0.17027135E-07 -0.22146798E-04  0.52208246E-05 -0.21406056E-05
 -0.20926951E-04 -0.93979179E-05  0.14825254E-04  0.64095293E-05 -0.97518417E-05
  0.16737639E-04  0.99378605E-05  0.14631640E-04  0.67806792E-05 -0.15307962E-04
  0.14890234E-04 -0.97529240E-05 -0.13830148E-04 -0.63609998E-06  0.13903767E-04
  0.12213956E-04 -0.20854772E-05  0.24448299E-04 -0.87954741E-05  0.10553581E-04
 -0.12603450E-04 -0.33105550E-04  0.11376644E-04  0.21901976E-04  0.88666485E-05
  0.74858092E-05  0.11115486E-05 -0.12044366E-04 -0.64579231E-04 -0.64729684E-03
  0.27377375E-03 -0.13153516E-03  0.18141404E-03  0.39334724E-03  0.96647483E-04
 -0.28648869E-04  0.79066706E-04 -0.30250585E-05 -0.60295942E-06 -0.21417155E-04
  0.18463712E-05 -0.88513489E-05 -0.40766295E-05  0.66556401E-05 -0.75094031E-06
  0.38573936E-05  0.18969337E-03 -0.18027649E-06 -0.11889727E-03 -0.13696839E-03
  0.16228184E-03 -0.16383379E-03 -0.80162476E-04  0.72672287E-04 -0.90774090E-04

 -0.70386328E-06 -0.16944275E-05 -0.14382131E-05 -0.93619875E-06 -0.31643390E-06
 -0.91739622E-06  0.67308623E-07 -0.49758282E-06 -0.30896169E-05 -0.14369250E-05
 -0.65718568E-06 -0.10268702E-06  0.32045693E-06 -0.24976303E-05  0.23113087E-05
 -0.84327440E-06 -0.74707110E-06  0.13274877E-05  0.39956720E-05  0.32429432E-05
 -0.98511376E-06 -0.36245109E-04  0.41634716E-04  0.98248243E-05 -0.42331574E-05
 -0.18311710E-04 -0.46987776E-05  0.56980053E-06 -0.15359529E-05  0.32723749E-06
 -0.16197044E-05  0.13506388E-05 -0.55009424E-06 -0.70279043E-06 -0.95501617E-06
 -0.17479484E-05  0.47745737E-05  0.30158691E-05 -0.12390774E-05 -0.57977208E-07
 -0.20275251E-04 -0.44206052E-04 -0.20969295E-06 -0.21058904E-05 -0.29765300E-04
 -0.54968009E-06  0.65484996E-09 -0.48561605E-07  0.12095580E-05 -0.86023633E-06
 -0.11293305E-05 -0.34463368E-06 -0.57740059E-06  0.10686017E-05  0.72315519E-06
 -0.27714925E-06  0.77642562E-06  0.39863570E-07  0.23802491E-05 -0.11907795E-05
  0.84576236E-06  0.10654984E-05 -0.37981090E-07 -0.18136707E-05 -0.51501714E-06
 -0.12091883E-06 -0.36248614E-06  0.14166900E-06  0.13042964E-05  0.23533497E-06
  0.53302939E-06  0.16254307E-06 -0.29069299E-05  0.93121543E-06  0.34123685E-06
  0.89864362E-06  0.70534368E-06  0.62561199E-06  0.10793288E-05 -0.84169778E-06
 -0.44200882E-06 -0.23465600E-05  0.73912003E-05 -0.24042427E-05  0.53412356E-06
 -0.86235883E-05  0.37619369E-05  0.24507799E-06 -0.27261125E-06  0.98036966E-06
  0.14087704E-04  0.11086163E-04 -0.46777938E-04 -0.11008271E-04 -0.15473554E-04
 -0.39962673E-05 -0.81855954E-05  0.22373770E-04  0.33741930E-05  0.38396888E-04
  0.82766961E-05  0.22208053E-05  0.26505058E-05  0.26696860E-05 -0.26364519E-05
 -0.36943294E-05 -0.37276584E-05 -0.26614149E-05 -0.11314034E-03  0.45594068E-04
  0.82344687E-04 -0.77376143E-04  0.28658646E-04  0.64193136E-04 -0.11789690E-03
 -0.14963834E-03  0.60430002E-04 -0.11767293E-05 -0.24987780E-05 -0.21774406E-05
 -0.26589017E-05  0.14220411E-05  0.23605966E-05 -0.24888440E-05  0.21614668E-06
  0.16759008E-05 -0.17164683E-04  0.10754647E-04 -0.92552122E-05  0.37527202E-05
  0.49521622E-04 -0.19263872E-04  0.18659082E-05 -0.29980368E-05  0.50563390E-05
 -0.20173233E-06 -0.12543579E-05  0.36555351E-05  0.29389957E-06  0.80524963E-06
 -0.12604592E-05 -0.25172050E-05 -0.45020535E-06  0.10681203E-06  0.26546222E-04
  0.11818540E-04 -0.11819742E-04  0.32745320E-04  0.22942429E-04 -0.18777069E-04
  0.73189852E-05 -0.12801900E-04  0.97141729E-06 -0.50982506E-06  0.13250010E-05
 -0.14377865E-05 -0.22014958E-05 -0.42694792E-06  0.95123498E-06 -0.89479392E-07
  0.32830293E-06  0.18580433E-06 -0.24260451E-05  0.11225531E-05  0.72309168E-07
  0.13272219E-06  0.89690692E-06 -0.17793360E-05  0.93570356E-06  0.66577672E-06
  0.74405308E-06 -0.15434724E-05  0.74274443E-06  0.10717310E-05  0.15342761E-05
 -0.26174663E-05  0.15032035E-06  0.17214705E-05 -0.76175271E-07 -0.13295085E-05
  0.50705269E-06 -0.62249103E-07  0.10096303E-05 -0.72172758E-06  0.38953523E-06
  0.27757368E-06 -0.32324410E-06  0.69155207E-06 -0.68192840E-06  0.13353100E-06
 -0.14215095E-05  0.12645871E-05 -0.12593355E-05 -0.28979872E-05  0.42950432E-06
 -0.18978638E-06 -0.69474934E-07  0.14259010E-05  0.20012406E-04  0.87981310E-05
 -0.20232121E-04  0.69786168E-05 -0.40171417E-04 -0.50878602E-05 -0.90044616E-05
  0.48008575E-05 -0.10537186E-04 -0.14280370E-05 -0.34301315E-06  0.20177938E-05
  0.26680828E-06  0.23518724E-05 -0.74854358E-06 -0.52737556E-06 -0.79660562E-06
  0.38368439E-06  0.17848861E-04  0.42924664E-05  0.29937129E-05 -0.63940858E-05
 -0.35637667E-05 -0.15909864E-05 -0.66903456E-05  0.94297028E-05  0.21697735E-04

  0.45691456E-06 -0.67482226E-06  0.24660881E-05  0.25740621E-05 -0.78776527E-05
 -0.59928418E-06 -0.87966668E-06  0.22162006E-05 -0.17619629E-05 -0.45537189E-05
 -0.29864692E-06 -0.95987861E-06 -0.10708200E-05  0.21185741E-05 -0.58042912E-06
  0.10008207E-05  0.59754508E-06  0.15186792E-05  0.24355853E-04 -0.43802702E-05
  0.26282208E-04 -0.90750349E-04  0.34325150E-05  0.12494036E-04 -0.15371701E-04
 -0.42024447E-04 -0.25036001E-04 -0.55843979E-06 -0.50368834E-06 -0.69007466E-06
 -0.22201918E-05 -0.25813563E-05  0.20812568E-05 -0.29946607E-05  0.11110891E-05
 -0.24057147E-05  0.68254420E-05 -0.19537445E-04  0.13103412E-04 -0.28675891E-04
 -0.25296561E-05 -0.23736035E-04  0.14521608E-04 -0.22167619E-04 -0.78047514E-05
 -0.41122165E-06  0.23058215E-05 -0.82293438E-06  0.92025887E-08  0.91182186E-06
 -0.13265163E-05  0.57509061E-06  0.16584829E-05  0.58618958E-07 -0.82306327E-07
 -0.19970880E-05  0.29007400E-06  0.93103727E-06 -0.39680449E-05  0.12545891E-06
  0.81292783E-06 -0.16577626E-05 -0.46693737E-06  0.23440020E-06 -0.45909838E-06
 -0.71595269E-07 -0.95696119E-06 -0.20451503E-05  0.14389527E-06  0.58145621E-06
  0.85649147E-06  0.24362150E-06 -0.39630174E-06 -0.49009361E-06 -0.72255814E-06
  0.58490008E-07 -0.48926559E-05 -0.94429158E-07 -0.15806540E-05 -0.15939585E-05
 -0.79695365E-06  0.52573817E-05  0.44861133E-05 -0.43851105E-05 -0.22512641E-05
 -0.13111806E-04  0.76054450E-05 -0.11680317E-04 -0.65426607E-06  0.58732505E-06
  0.52609725E-04 -0.12333851E-04 -0.59076583E-04 -0.60914406E-05  0.68885547E-04
 -0.37694698E-04 -0.15149747E-04  0.18456340E-04  0.39716311E-04  0.82766961E-05
  0.80934275E-04  0.78951892E-05  0.10805870E-04 -0.54152044E-05  0.89502164E-05
  0.72574696E-06 -0.14454269E-05 -0.17486206E-04 -0.53417222E-04  0.16254396E-03
  0.38751710E-03 -0.52751204E-03 -0.76000925E-04  0.43936689E-03 -0.53882947E-04
 -0.92560613E-05  0.22594910E-03 -0.32126336E-05 -0.32224390E-05  0.19112007E-05
 -0.42480114E-05  0.58599968E-05 -0.51908731E-05  0.14044157E-06 -0.16008932E-05
 -0.46875482E-06  0.15364529E-04 -0.41384868E-04 -0.32307840E-05 -0.72199050E-05
  0.45871754E-04  0.31238626E-04 -0.24127075E-04 -0.71581081E-05  0.15517617E-04
  0.73910974E-06 -0.22588404E-05 -0.91280281E-06  0.27963413E-05 -0.44261820E-05
 -0.41674883E-05 -0.15699200E-05  0.18220215E-05  0.27996168E-06  0.35515650E-04
  0.27356574E-04 -0.27378667E-04  0.20913228E-05 -0.84434729E-04  0.17006374E-04
  0.23117636E-04 -0.20399354E-04  0.14454481E-04 -0.43397863E-06  0.14932104E-05
  0.85024173E-06 -0.36795354E-05  0.10452293E-04 -0.15260898E-05 -0.74119610E-06
 -0.35218557E-06 -0.26471682E-05 -0.37863224E-06 -0.34537319E-05 -0.22226609E-05
 -0.35578451E-05  0.60277333E-05 -0.37899505E-05  0.47314128E-06 -0.14416098E-05
  0.82490068E-07  0.22948249E-06  0.18357699E-05  0.12918156E-05  0.87890363E-06
 -0.63485779E-05  0.54152247E-06  0.11930152E-05 -0.73120687E-06 -0.80001877E-06
 -0.15599677E-06  0.10256190E-05 -0.11814326E-05 -0.55259209E-06  0.16273003E-05
 -0.28181643E-05  0.19327317E-06  0.13790118E-06  0.17849591E-05 -0.11407463E-05
 -0.41798276E-05 -0.94445319E-06 -0.10217019E-05 -0.29662795E-05 -0.19991664E-05
  0.88553275E-06 -0.17456730E-05  0.16811901E-05  0.61261930E-05  0.46526937E-04
  0.61622168E-04 -0.48202131E-04 -0.31046455E-04  0.10687207E-04 -0.15027904E-04
  0.22160848E-04 -0.64079489E-04 -0.25742968E-05 -0.12528242E-05 -0.44346343E-06
 -0.69435951E-06  0.15002486E-05 -0.16719034E-05  0.35881600E-05 -0.28776398E-06
  0.33997372E-05  0.39741454E-04 -0.36719261E-04 -0.42024050E-04 -0.48232325E-04
 -0.38535843E-05  0.69750099E-05 -0.77323430E-05 -0.23315011E-04 -0.76776915E-06

 -0.19303289E-05 -0.42060073E-06 -0.15324505E-05 -0.70661957E-06  0.65108033E-06
 -0.22105257E-06 -0.70980347E-06 -0.14119540E-05 -0.31620755E-06  0.11081726E-05
 -0.13942044E-06 -0.57290847E-07  0.86992645E-06  0.21831766E-05 -0.86082130E-05
  0.27894202E-06  0.26420061E-05  0.14869958E-05  0.14884318E-04  0.19519869E-04
 -0.13032186E-06 -0.45912002E-04 -0.21657270E-04 -0.58114999E-05 -0.20172684E-04
 -0.16022770E-05  0.32617900E-04  0.55932942E-06  0.52240964E-06  0.40756676E-05
  0.58232905E-06 -0.10686905E-05 -0.63201938E-05 -0.14318798E-05 -0.94474024E-06
 -0.81238103E-06 -0.78533688E-06  0.58081549E-05 -0.15091307E-04 -0.89969199E-06
  0.24631651E-04 -0.76001153E-05  0.14514055E-04 -0.36295016E-04  0.21610186E-04
 -0.12702556E-05  0.39808647E-06 -0.24244138E-06 -0.15620417E-05 -0.29737316E-05
  0.16630796E-05  0.95906141E-07 -0.61467356E-06  0.69697172E-06  0.13276285E-05
 -0.29602195E-05  0.10573520E-05 -0.60155147E-06  0.55328403E-06 -0.15951195E-05
 -0.73366190E-06 -0.43900173E-06  0.12848792E-07 -0.23411605E-06  0.11204216E-05
  0.30136761E-06  0.69181867E-07  0.19003059E-07 -0.15320891E-06  0.82669031E-06
  0.10058121E-05 -0.49609852E-06 -0.57344213E-06  0.12891273E-05 -0.21559050E-05
 -0.70233223E-06  0.62034542E-06 -0.18073204E-05  0.78122067E-06  0.56587597E-06
 -0.65888458E-06  0.58665042E-06  0.14193785E-06 -0.19929963E-05  0.11788521E-05
 -0.25619134E-05  0.26590253E-06 -0.14724985E-06  0.10347770E-06  0.30772169E-05
 -0.14773886E-04 -0.60959388E-05 -0.11745232E-04  0.10676813E-04 -0.23129911E-04
  0.27940948E-04 -0.25525312E-06 -0.27694531E-04  0.13602110E-04  0.22208053E-05
  0.78951892E-05  0.60097334E-04  0.64893580E-05  0.99023339E-05 -0.69249595E-05
  0.41958057E-06 -0.35423344E-05 -0.12668011E-04 -0.14130900E-04  0.18544154E-03
  0.12910086E-03 -0.37348839E-03  0.16596707E-03 -0.66063678E-04 -0.91107563E-05
  0.21239811E-04  0.13275149E-03 -0.41688849E-05 -0.33529087E-05  0.50591058E-05
  0.21179580E-05  0.41689089E-06 -0.94232233E-05 -0.12717836E-05  0.33051680E-05
  0.34118829E-05 -0.26446932E-05 -0.14184609E-04 -0.18974997E-04  0.25404599E-04
 -0.23187894E-04  0.18859040E-04 -0.40976526E-04  0.24539540E-05  0.59665481E-04
  0.40251607E-05  0.21297574E-05 -0.21174452E-05  0.20137660E-06 -0.14060218E-06
 -0.17604908E-05 -0.10903693E-05  0.19297073E-05 -0.19034147E-05  0.12401118E-04
  0.85653220E-05 -0.38485236E-04 -0.48043282E-05 -0.31135957E-04 -0.41270124E-04
 -0.11990718E-04  0.32525631E-05  0.18386545E-05 -0.16015197E-05 -0.23082213E-05
  0.29635737E-05 -0.22576239E-05  0.13302593E-06  0.38491194E-05 -0.43576233E-07
  0.74830057E-06 -0.27127133E-05  0.47804637E-06  0.38255110E-06 -0.33844565E-05
 -0.15105846E-05 -0.43645080E-05  0.52270999E-05  0.33656571E-06 -0.40898583E-06
  0.62226322E-06 -0.12190271E-06  0.92490397E-06  0.11403704E-06 -0.11113599E-05
 -0.48367256E-07  0.13396076E-05 -0.25513162E-06  0.18595895E-06  0.11141524E-05
 -0.96995404E-06  0.31858173E-06 -0.25590067E-05 -0.13613012E-05  0.18117649E-05
  0.21299720E-05  0.61710470E-06  0.16160551E-05  0.10830799E-05 -0.41873601E-06
 -0.11285663E-05  0.37368469E-05 -0.97191219E-06 -0.13074053E-06  0.76115893E-06
 -0.21186548E-06 -0.12395171E-05  0.37260251E-05  0.21252042E-04  0.34646833E-05
 -0.31175156E-04  0.54546719E-05 -0.25363479E-04  0.11850093E-03 -0.27669030E-04
 -0.34633491E-04  0.16731003E-04  0.93895808E-06 -0.90404412E-06 -0.18351677E-05
 -0.99550515E-06 -0.73974996E-06  0.19431672E-05  0.14296538E-05 -0.54884313E-06
  0.10519779E-05  0.50455208E-05 -0.12576972E-04  0.26211335E-04  0.23773725E-04
 -0.14322431E-05 -0.14941930E-04 -0.13468753E-04  0.18183549E-04 -0.86545331E-05

  0.77044813E-07 -0.16447915E-06  0.22797028E-05  0.11771113E-06 -0.15923995E-05
 -0.14296055E-06 -0.96037812E-07 -0.32414374E-06 -0.14316404E-05 -0.27407186E-05
 -0.24942495E-06  0.10118268E-05  0.15589885E-05 -0.67786090E-06  0.86858748E-06
 -0.71776945E-06  0.49024671E-06  0.20672308E-05  0.12535228E-04  0.77222562E-05
 -0.21686122E-05  0.41824081E-04 -0.10021667E-04 -0.94691659E-05 -0.10979564E-04
 -0.17036024E-04  0.21369620E-04  0.30476642E-06 -0.10989867E-05  0.31121056E-05
 -0.56280623E-05  0.90571222E-06  0.23072817E-05 -0.23194665E-05 -0.14851279E-06
 -0.17977018E-06  0.25735848E-04 -0.12008202E-04  0.56875814E-05 -0.14696800E-04
 -0.63457719E-05  0.23720741E-04  0.12503519E-04  0.47584799E-05  0.17241647E-04
 -0.40479848E-06  0.13634728E-05 -0.99658285E-06 -0.92266560E-06 -0.28686332E-06
 -0.16249261E-06 -0.18801379E-05  0.88810575E-06 -0.99787273E-07 -0.27681539E-05
 -0.26051638E-05 -0.17667769E-06  0.12033611E-05  0.13474596E-05 -0.14353209E-05
 -0.12595799E-05  0.21435426E-06  0.49014311E-06 -0.47279160E-06  0.54227179E-06
 -0.34844725E-06  0.43373744E-06  0.20194679E-05  0.14273031E-06  0.20290292E-05
  0.10579458E-05  0.61310227E-06  0.24885435E-05  0.13884466E-05  0.85520164E-06
 -0.17328699E-05  0.23838164E-05  0.10691320E-06 -0.77862768E-06 -0.14155281E-05
 -0.56871211E-06 -0.33691509E-05  0.52257095E-07 -0.21339472E-06 -0.36720073E-05
 -0.28830453E-08  0.41625153E-06  0.48386509E-05 -0.65541944E-06 -0.17112016E-07
  0.18223584E-04  0.33119665E-05 -0.15696382E-04 -0.85467873E-05 -0.16975886E-04
 -0.33472444E-05  0.25219651E-04  0.13895036E-04 -0.17426606E-04  0.26505058E-05
  0.10805870E-04  0.64893580E-05  0.59740980E-04 -0.23464535E-04 -0.17152521E-04
  0.27827786E-06  0.35618963E-05 -0.49781597E-05  0.51591523E-05  0.88419283E-04
  0.14825709E-03 -0.32431286E-03  0.17641202E-04  0.12622173E-03  0.49248448E-05
  0.85714098E-05  0.49673144E-04  0.23974305E-05  0.59397065E-06  0.29837602E-05
 -0.28192002E-05  0.74719918E-06  0.15225294E-05 -0.37211409E-06 -0.49695776E-05
 -0.23827748E-05  0.93212752E-05 -0.55862291E-05 -0.18795830E-04 -0.10168320E-04
  0.17531075E-04  0.16912193E-04  0.15309059E-04 -0.78689104E-05 -0.12467131E-04
 -0.11805665E-05 -0.58650538E-06 -0.11555611E-05 -0.17356927E-07  0.18234983E-05
  0.11610307E-06 -0.92476539E-06 -0.67637808E-06  0.10283103E-06  0.17354481E-05
 -0.54614547E-05 -0.17853698E-04 -0.15316670E-04  0.12413984E-04 -0.20760381E-04
 -0.41694221E-05 -0.19756466E-04  0.48157571E-05  0.11320396E-05 -0.36355400E-07
 -0.17132028E-05 -0.16737048E-05  0.70810948E-06  0.24187877E-05  0.44059472E-06
 -0.61532763E-06  0.20348194E-07 -0.71810165E-06  0.21689322E-05 -0.59258013E-06
 -0.51900270E-05  0.78264448E-06  0.19525708E-05  0.14335292E-06 -0.18487682E-06
 -0.88251502E-07  0.46039649E-06 -0.21915571E-06  0.11652745E-05  0.41349397E-06
  0.36770386E-06 -0.11943227E-05  0.46988648E-06  0.19921457E-06  0.64901052E-06
 -0.20169132E-05  0.18832106E-05  0.11051419E-05  0.77993434E-06  0.15816166E-05
 -0.24586481E-05 -0.31718950E-06 -0.77674038E-07  0.59653064E-07 -0.98312317E-06
  0.21592126E-05  0.30126836E-06 -0.27247891E-05  0.25453576E-06  0.88420895E-06
 -0.57947013E-06 -0.49185819E-06  0.25010217E-05  0.90985447E-05  0.92198604E-05
  0.10541805E-04  0.38826062E-04 -0.24232421E-04  0.93015020E-04 -0.35453544E-04
 -0.38819550E-04  0.25751706E-04 -0.26731606E-05 -0.70993601E-07  0.58511843E-06
 -0.25392012E-05  0.20384953E-05  0.74711542E-06  0.17227720E-05  0.18240335E-07
  0.45519054E-07 -0.18659146E-04 -0.96409326E-05 -0.69753538E-05  0.46037642E-04
 -0.28782686E-04 -0.17611734E-04  0.11368621E-05 -0.12675967E-04  0.31660466E-05

 -0.18438406E-05 -0.29487759E-05 -0.41163303E-06  0.38792828E-06  0.40775040E-05
  0.27402388E-05  0.84063905E-06  0.15055850E-05  0.20799282E-05 -0.13036392E-05
  0.10530877E-05  0.36689094E-05  0.18796924E-06  0.34632559E-05 -0.27377927E-05
 -0.30507696E-05 -0.14609988E-05 -0.29207047E-05  0.49558860E-04  0.25909606E-04
  0.44524135E-05 -0.10624151E-04 -0.85218106E-05  0.94537222E-05 -0.16116695E-04
  0.62634588E-06  0.27195846E-04 -0.82061160E-06  0.14660582E-05  0.14757730E-06
  0.29683807E-05 -0.65152415E-05 -0.34351721E-05 -0.11174354E-05 -0.91390583E-06
 -0.24568153E-05 -0.18783776E-05  0.63132817E-06  0.79566785E-05  0.74066734E-05
  0.58979422E-05 -0.28222672E-05  0.71982659E-05  0.42811644E-05  0.34585211E-05
 -0.39596319E-06  0.41981128E-05 -0.80796380E-06  0.81528295E-06 -0.81771666E-05
  0.32916895E-05  0.20947011E-05  0.22535371E-07 -0.13074337E-05 -0.80439430E-07
  0.80997845E-06  0.51523842E-07  0.31467124E-05 -0.72321618E-05 -0.69183066E-06
  0.79026248E-06 -0.58228642E-08  0.26860725E-06 -0.27870478E-06  0.35980505E-05
 -0.30063201E-06  0.24494851E-05 -0.14447099E-05  0.31672738E-06 -0.11017998E-05
  0.60850043E-06 -0.21257642E-05 -0.35084150E-06  0.18083316E-05  0.16371455E-05
  0.30224707E-05 -0.68363939E-05  0.22474969E-05  0.30256784E-05 -0.42580712E-06
  0.13187661E-05  0.86182234E-05  0.87279056E-05 -0.96893243E-05 -0.11032739E-05
 -0.94243229E-05  0.10665054E-04 -0.12620645E-04 -0.24176907E-06  0.57639130E-05
  0.17620432E-04  0.78106016E-04 -0.57746919E-04  0.58318059E-06  0.61184607E-04
 -0.14999050E-04 -0.60651860E-04  0.32545413E-04  0.67995895E-04  0.26696860E-05
 -0.54152044E-05  0.99023339E-05 -0.23464535E-04  0.10487029E-03 -0.30795417E-04
  0.69878538E-05 -0.16206357E-05 -0.85897303E-05  0.54321108E-05  0.12974865E-03
 -0.16595092E-03  0.81071006E-04  0.23339260E-03 -0.34355495E-03  0.45471825E-05
  0.27196836E-04  0.12002294E-03 -0.13743371E-05 -0.22540940E-05 -0.32861820E-05
  0.58488564E-06 -0.37166200E-05  0.69999077E-05  0.40644172E-05 -0.31419653E-05
 -0.22472977E-05  0.14484880E-04 -0.32243956E-04 -0.46350383E-06  0.28355763E-04
 -0.38848193E-04  0.17667081E-04  0.26749441E-05  0.67854023E-05 -0.15700433E-04
  0.14375475E-05  0.81008743E-05 -0.14372672E-05  0.17150372E-05 -0.99014571E-05
  0.54417770E-05 -0.32255730E-05  0.18427325E-05 -0.60766150E-05 -0.68571674E-05
  0.22111604E-04  0.11981510E-04 -0.11002014E-04  0.10590502E-03  0.29592461E-05
 -0.23599811E-05  0.99051881E-05  0.26554307E-04  0.14795423E-05  0.37107757E-05
  0.28092404E-05  0.14296088E-05 -0.66242835E-05  0.12137319E-05 -0.32300050E-05
  0.43910081E-06 -0.27900238E-05  0.46441138E-06 -0.59734019E-05 -0.14797290E-05
  0.13232273E-05  0.74123840E-05  0.10356070E-05  0.18457662E-05 -0.14963908E-06
  0.21834260E-05 -0.20757566E-06 -0.30640505E-06 -0.10368024E-05  0.44530418E-06
 -0.15499942E-05  0.10566872E-05  0.24394830E-07 -0.11968031E-05  0.20524316E-05
 -0.79838026E-06  0.85042568E-06 -0.21923645E-05  0.10946670E-05  0.39078927E-05
  0.11874564E-05  0.13687737E-05  0.18059276E-05  0.16133542E-05 -0.50724378E-06
 -0.10863431E-05  0.10450795E-05 -0.67734387E-06  0.36580729E-05 -0.76396055E-06
  0.31476200E-05 -0.12466757E-05  0.24019021E-05  0.35012516E-06  0.22403737E-05
  0.27905059E-04  0.31632455E-05 -0.98693401E-05 -0.41902062E-05  0.26020688E-05
 -0.63256779E-06  0.25148707E-04  0.60028011E-06 -0.18771988E-05  0.40428506E-06
  0.13300381E-05 -0.51684809E-06  0.23492027E-05  0.16370174E-05  0.25925308E-06
  0.29731368E-05  0.15853920E-04 -0.14032027E-05 -0.13998656E-04 -0.40136837E-04
  0.54200808E-04  0.31126346E-04 -0.60806873E-04  0.12244928E-04 -0.68992277E-04

  0.39874136E-06  0.42717482E-06 -0.11462122E-05  0.25427412E-05 -0.58239656E-06
 -0.48061853E-05 -0.32781203E-06  0.97173851E-06  0.78928020E-06  0.18403116E-05
  0.83616206E-06 -0.36128017E-06  0.12869362E-05 -0.87982433E-06  0.28264754E-05
  0.19183871E-05  0.89470900E-06 -0.32324112E-05 -0.34961212E-04 -0.24728735E-04
  0.13068800E-04 -0.27238189E-04 -0.98046016E-05  0.91309932E-06  0.16296316E-04
 -0.50893902E-04 -0.48669509E-04  0.13433820E-05  0.11399527E-05 -0.10659928E-05
  0.39287515E-06  0.29415070E-06  0.23340971E-05  0.21782693E-05 -0.11572296E-05
 -0.21840041E-05  0.38269412E-05  0.26648644E-04 -0.18358135E-04  0.13694128E-05
  0.63143512E-05 -0.17052635E-05 -0.17044472E-04 -0.13679673E-06 -0.25184714E-04
 -0.12004357E-05 -0.19723817E-06 -0.19164098E-06  0.18127879E-05  0.39960489E-05
 -0.17380614E-05  0.47385519E-06  0.22417955E-06  0.11969377E-05  0.14481780E-05
 -0.24749890E-07 -0.76150279E-06 -0.10231262E-05 -0.38821261E-06  0.42366932E-05
  0.16701671E-05 -0.38502665E-06  0.20097531E-05  0.36842661E-06 -0.29366327E-06
 -0.88528064E-06 -0.29858001E-06  0.11424056E-06  0.13424361E-05 -0.10475902E-05
 -0.18574101E-06  0.26153236E-06  0.19902618E-06 -0.10098111E-05 -0.10894762E-05
 -0.52776062E-06 -0.27281417E-06 -0.36163989E-06  0.25336597E-06  0.11533643E-05
  0.11815798E-05 -0.15909614E-05 -0.22779361E-05  0.32445108E-05  0.33021664E-05
  0.70246861E-05 -0.79937425E-05  0.51511046E-05 -0.18815724E-05 -0.87717393E-05
 -0.69485593E-05 -0.45172119E-04  0.30155169E-04  0.94697921E-05  0.27708767E-04
  0.37511683E-07  0.48124634E-05 -0.21316430E-04 -0.45597425E-04 -0.26364519E-05
  0.89502164E-05 -0.69249595E-05 -0.17152521E-04 -0.30795417E-04  0.83999621E-04
 -0.29868864E-05  0.55651916E-07 -0.62264359E-05 -0.16209106E-04 -0.86195153E-04
  0.13901413E-03 -0.29593827E-04 -0.15209068E-03  0.42174153E-03  0.19158675E-05
 -0.22013162E-04  0.80829856E-04 -0.56354831E-05 -0.21025758E-05  0.16420854E-05
  0.40538459E-06  0.10268347E-04 -0.16984997E-04 -0.22685356E-05  0.82223021E-05
  0.79890023E-05 -0.21144532E-04 -0.47371849E-04  0.36158297E-04  0.21705543E-04
  0.22984458E-04 -0.40005449E-05 -0.33362522E-04  0.94542320E-05  0.62788744E-04
  0.15638907E-05 -0.21824372E-05  0.42112536E-05  0.98065785E-06  0.34679186E-05
 -0.57320630E-05  0.37294432E-06 -0.15103546E-05  0.99965242E-06 -0.30115129E-05
 -0.41212274E-06  0.36803130E-05  0.39408779E-05 -0.36726483E-04  0.18687093E-04
  0.13342915E-04  0.93988896E-05  0.68723387E-05 -0.13016184E-05  0.95612488E-06
 -0.53475154E-05  0.21385805E-05  0.18997896E-05 -0.67010638E-05 -0.29838190E-06
 -0.11371888E-05 -0.24843275E-06  0.10706484E-05 -0.21324398E-06  0.28639456E-05
  0.10984600E-05 -0.13781419E-05 -0.21897136E-05 -0.18769746E-05  0.54619790E-06
 -0.81684527E-06  0.43845273E-06  0.18040810E-05 -0.10467920E-06 -0.14979326E-05
  0.98900859E-06  0.44060144E-05  0.92749891E-07  0.13372706E-05  0.14568922E-05
  0.41185921E-05 -0.22777738E-05 -0.84295678E-06 -0.13789186E-05  0.57023865E-07
 -0.14727201E-05  0.21208821E-06 -0.24836052E-05  0.45752871E-06 -0.26022362E-05
 -0.13879783E-05 -0.55684647E-05  0.61436291E-06  0.22957927E-06 -0.24688195E-05
 -0.30573452E-05 -0.40824612E-05 -0.38274403E-05  0.10782360E-04 -0.27023919E-04
 -0.69792683E-05 -0.12285614E-04  0.33305112E-04 -0.19576834E-03 -0.21013082E-05
  0.32379011E-04 -0.54394935E-04 -0.20515681E-06  0.50728648E-06 -0.41970805E-05
  0.12345206E-05 -0.13512756E-05 -0.15986922E-05 -0.87233377E-06  0.52492933E-06
  0.45544283E-07  0.17260704E-04  0.94744617E-05  0.27846486E-04  0.34002793E-04
 -0.25603294E-04  0.37931369E-04  0.24661433E-04 -0.89479421E-05 -0.26604212E-05

 -0.43710360E-06 -0.16522333E-06  0.24500768E-05  0.10128458E-05 -0.16028112E-05
 -0.11569312E-05 -0.42170468E-06  0.30004724E-06  0.35028226E-06 -0.90333551E-06
 -0.64986247E-07  0.25728822E-06  0.13984098E-05  0.39698483E-05 -0.23457840E-05
 -0.82269269E-06 -0.35376289E-06 -0.28649607E-05  0.18448769E-04 -0.16343050E-04
  0.49496455E-06 -0.24335407E-04  0.21627622E-04  0.12172851E-05 -0.40974733E-05
 -0.18675655E-04 -0.33050001E-05 -0.16609057E-05 -0.12376235E-05  0.20464883E-05
  0.11552319E-06 -0.17439430E-05  0.37363115E-06  0.14736668E-05  0.14423143E-05
  0.25572480E-05 -0.72672298E-05 -0.77755656E-05  0.61956602E-05 -0.30206808E-05
 -0.10400788E-04  0.13362040E-04 -0.11962821E-04 -0.15203850E-04 -0.30954502E-05
  0.14771054E-06 -0.52912055E-06 -0.18875986E-05  0.14775417E-05 -0.27793764E-05
 -0.19906609E-06 -0.10097868E-05 -0.32409522E-07 -0.11008128E-05 -0.98685043E-06
 -0.11388243E-05 -0.53039120E-06 -0.13027218E-05 -0.92507581E-06  0.11480392E-05
 -0.18260757E-05 -0.56689517E-06 -0.45160202E-06  0.97895448E-06  0.10205200E-05
  0.13968485E-06  0.10051167E-05  0.14330962E-06 -0.46200101E-06 -0.79649515E-06
 -0.52090215E-06 -0.36554088E-06  0.36004451E-06  0.10129166E-05  0.41712742E-06
 -0.87336674E-07  0.21280089E-05 -0.48115830E-06  0.36104766E-06  0.64310667E-06
 -0.12051942E-07  0.21095944E-05  0.79878355E-05 -0.52402320E-05  0.39336845E-05
 -0.13172576E-04  0.43899214E-05 -0.18327097E-05 -0.14197470E-05  0.36819071E-05
  0.19722404E-04  0.25349607E-04 -0.29690256E-04  0.19841853E-04  0.57998010E-05
 -0.81855056E-05 -0.23695602E-04  0.16375404E-04  0.18609827E-04 -0.36943294E-05
  0.72574696E-06  0.41958057E-06  0.27827786E-06  0.69878538E-05 -0.29868864E-05
  0.33720292E-04 -0.74897430E-07 -0.10417438E-05  0.78757988E-04  0.73092498E-05
 -0.27530554E-04  0.16076626E-05  0.19779783E-04 -0.89897666E-04  0.58316324E-04
  0.18499924E-03 -0.14603670E-04 -0.62515576E-06 -0.43111552E-06  0.15272632E-05
 -0.13714922E-05  0.20925168E-05 -0.20662573E-05  0.78465091E-06 -0.72567670E-06
 -0.19508160E-05 -0.16275348E-04 -0.25306607E-04  0.10412765E-04  0.46072008E-04
 -0.11882645E-04 -0.10945230E-04 -0.15147828E-04 -0.35849287E-05  0.16212358E-04
  0.11341589E-05  0.14794315E-05 -0.71837831E-06  0.56936104E-06  0.21425090E-05
 -0.17696226E-05 -0.10199662E-05  0.96486701E-06 -0.14132698E-05 -0.39394693E-05
 -0.70205756E-05 -0.61520494E-05 -0.70218394E-05  0.21483879E-04 -0.55512039E-05
  0.42256000E-05  0.53169615E-06 -0.87916711E-05  0.18673576E-05 -0.10724045E-05
 -0.20413029E-05 -0.83237247E-06  0.29046791E-05 -0.53728573E-06 -0.22430636E-05
 -0.14895890E-05  0.42812155E-06 -0.10436905E-05  0.61246787E-06 -0.15357559E-06
 -0.10653326E-05  0.67519361E-06  0.25430364E-05 -0.81806901E-07 -0.13345672E-06
  0.36629044E-06  0.96133058E-06  0.30235989E-06 -0.11095024E-06 -0.13616346E-05
 -0.24617581E-06  0.12737778E-05  0.76132016E-06  0.70995952E-07  0.58793348E-06
 -0.20709903E-06  0.14690125E-06  0.12199358E-06  0.32075144E-06  0.18952187E-05
 -0.47535192E-06 -0.79796601E-06 -0.94743696E-07  0.61680951E-06  0.67483134E-06
 -0.19814529E-05  0.12209028E-05  0.12588890E-05 -0.31567323E-05  0.17216329E-05
  0.18739554E-05  0.13395784E-06  0.11486008E-05 -0.63577249E-05  0.10344796E-04
 -0.29879041E-04  0.11224237E-04 -0.29620299E-04 -0.23790767E-04  0.14100259E-04
  0.27161286E-04 -0.13072461E-04 -0.13403534E-06 -0.20355862E-05  0.17169665E-06
 -0.73133958E-06  0.21790966E-05 -0.38297321E-06 -0.10660290E-05 -0.18579802E-06
  0.76904930E-06 -0.36822267E-05 -0.17547569E-04  0.16681588E-04  0.13408565E-04
 -0.94864626E-05  0.98827106E-05 -0.40404284E-05 -0.15632349E-04 -0.23961661E-04

  0.41854539E-06  0.83988797E-06  0.12966188E-06  0.15503057E-06  0.44470080E-06
  0.76392392E-07 -0.19101032E-06 -0.55386216E-06  0.41577744E-06  0.13674486E-06
  0.11147953E-05  0.29433484E-05 -0.23541253E-06 -0.22506497E-06  0.11529279E-05
  0.23762763E-06  0.12980428E-05 -0.12187441E-06 -0.27396759E-05  0.86623804E-05
 -0.14370873E-04 -0.25149995E-05 -0.95732537E-05 -0.17513882E-04 -0.74599222E-05
 -0.96936906E-05  0.10763344E-04  0.16885564E-05 -0.84923422E-06  0.24842929E-05
 -0.11262937E-07 -0.19417768E-05  0.82304549E-06 -0.11191389E-05 -0.19892013E-05
  0.11336141E-05 -0.65545768E-05  0.91048662E-05  0.15039272E-04  0.95368946E-05
 -0.47642962E-06 -0.14052111E-05 -0.13600130E-05  0.45449757E-05  0.15963517E-04
 -0.10788172E-05  0.17772947E-05 -0.85084731E-06  0.94899771E-06  0.53362932E-07
 -0.10441431E-05  0.44152392E-06 -0.75337078E-06 -0.44830929E-06 -0.14860893E-05
 -0.70904069E-06 -0.59045487E-07  0.90290856E-06  0.92151046E-07 -0.12567744E-05
  0.39951286E-06  0.54044898E-06  0.20250318E-05 -0.96041994E-06  0.60423415E-06
  0.42019056E-06  0.84713957E-06  0.99502426E-06  0.39133567E-06 -0.62058672E-06
  0.32077892E-08 -0.99666986E-06  0.19490043E-05  0.60419961E-06  0.17221287E-05
 -0.69555442E-06 -0.16979039E-05  0.47438733E-06  0.13838747E-06  0.70059701E-06
  0.11364924E-05 -0.72087216E-06 -0.38160826E-05 -0.94693733E-06 -0.66589204E-06
  0.14820323E-05 -0.17711822E-05 -0.81868573E-06 -0.23691243E-05  0.58190836E-05
 -0.36125596E-05  0.18252205E-04  0.83604561E-05 -0.17093200E-05  0.69204709E-05
 -0.68093120E-05  0.64650738E-05 -0.73812118E-05  0.50693045E-05 -0.37276584E-05
 -0.14454269E-05 -0.35423344E-05  0.35618963E-05 -0.16206357E-05  0.55651916E-07
 -0.74897430E-07  0.31465414E-04  0.25609999E-05  0.84468107E-04 -0.18142983E-04
 -0.19637598E-04  0.15839001E-06 -0.24728586E-04  0.21297953E-04  0.84702789E-04
  0.61235236E-04 -0.58040334E-05  0.26022631E-05  0.35383726E-05 -0.23455875E-05
 -0.56669028E-05 -0.90546029E-06  0.81004749E-05 -0.11461619E-05 -0.18545352E-05
 -0.54111736E-05  0.22239820E-05  0.25496290E-04 -0.45351394E-04 -0.46639459E-04
  0.51033166E-04 -0.13829967E-04  0.51422296E-05 -0.19541469E-05 -0.20165834E-04
  0.10580347E-06 -0.96606335E-06  0.72582478E-06 -0.10509588E-06 -0.47326335E-06
 -0.79885395E-06 -0.48190469E-06  0.11487928E-05 -0.22286719E-05 -0.54350008E-05
  0.50052760E-05 -0.10464503E-04 -0.12856186E-04  0.51724962E-05  0.13573960E-04
  0.15254424E-05 -0.12711834E-05 -0.67225727E-05 -0.13239355E-05 -0.10049017E-06
 -0.90160963E-06 -0.30338074E-06  0.87035660E-06 -0.19421257E-05 -0.24528282E-06
 -0.23658502E-05 -0.63954123E-06  0.11310367E-05 -0.70929991E-06  0.71068847E-06
 -0.16046097E-06  0.16383969E-05  0.27454483E-07 -0.47835480E-06 -0.74933328E-06
  0.57149982E-06 -0.22750196E-06 -0.54237929E-06 -0.14870555E-06  0.57579363E-06
 -0.12216789E-06  0.58131819E-06  0.11236715E-05  0.17632898E-06  0.94638435E-06
 -0.64359596E-06  0.46630071E-06  0.37693975E-05  0.50866985E-06  0.14466388E-05
 -0.25646786E-05  0.72379822E-07 -0.21430205E-05  0.24887045E-06 -0.87974680E-06
 -0.23708637E-06 -0.21122914E-05 -0.97857758E-06  0.27007680E-05 -0.32258020E-05
  0.16401240E-05 -0.24518719E-05 -0.99420259E-06 -0.52299894E-05 -0.14207904E-04
  0.12750941E-04  0.74925722E-05  0.24119928E-04 -0.78130465E-04  0.33618840E-05
  0.21629272E-04 -0.47744923E-05 -0.15443729E-05 -0.10897386E-06 -0.29805751E-06
  0.64379769E-06 -0.24320520E-05  0.69415524E-06 -0.17852355E-06 -0.68929958E-06
  0.90629312E-06 -0.97412944E-05 -0.14665616E-05  0.37570974E-05 -0.28857343E-04
 -0.32881097E-05  0.21720991E-04  0.24670647E-05  0.14590782E-04 -0.10126026E-05

  0.15925816E-05  0.56459586E-06 -0.91244796E-06 -0.12787416E-05  0.13370895E-05
  0.28412508E-05  0.98317583E-07 -0.30695720E-05 -0.11015468E-05  0.82878084E-06
  0.24525342E-05 -0.21452906E-05 -0.13121669E-05  0.23312153E-07  0.21369250E-05
 -0.10960902E-05 -0.79735404E-06  0.34535195E-05 -0.17076755E-04 -0.17060110E-05
 -0.20569806E-04  0.88506543E-04 -0.22741070E-04 -0.20430414E-04 -0.10907460E-04
  0.16488229E-04 -0.40767294E-04  0.11088308E-05  0.21001546E-06 -0.39293615E-05
  0.84112011E-06  0.31766714E-05  0.26384920E-05  0.12657769E-05  0.66115775E-06
 -0.63543477E-06  0.15349137E-05  0.32079704E-04  0.16704376E-04  0.88181547E-05
  0.12616566E-05  0.16571239E-04 -0.89012286E-05  0.22618353E-04  0.92375021E-05
 -0.10365884E-06 -0.60701698E-06  0.84997852E-06  0.59825325E-06  0.18167197E-05
 -0.84893440E-06 -0.40689751E-06 -0.82621722E-06 -0.24147394E-05 -0.81358763E-06
  0.12427611E-05 -0.71215531E-07 -0.49733551E-07  0.28091960E-05  0.17444559E-05
 -0.14407973E-06 -0.45277778E-06 -0.21977396E-05 -0.50270334E-06 -0.21244555E-05
  0.30078656E-06  0.18882357E-05 -0.27348341E-05 -0.15617619E-05 -0.74643674E-06
 -0.15340366E-06  0.13813498E-05 -0.19495226E-06 -0.31599690E-05  0.36943788E-06
 -0.95220270E-08  0.48740116E-05 -0.10061390E-05  0.20202028E-06  0.37506130E-06
 -0.28350929E-07 -0.28239551E-05 -0.42152404E-05  0.13181994E-05  0.65638902E-06
  0.93155278E-05 -0.50115677E-05  0.53775892E-05  0.44710553E-05  0.52980822E-05
 -0.28136078E-04 -0.68951333E-05  0.44573486E-04  0.34622081E-05 -0.44051924E-04
 -0.37337253E-04  0.25496738E-05 -0.10014938E-04  0.10373221E-04 -0.26614149E-05
 -0.17486206E-04 -0.12668011E-04 -0.49781597E-05 -0.85897303E-05 -0.62264359E-05
 -0.10417438E-05  0.25609999E-05  0.54117437E-04  0.22160026E-04 -0.14050302E-03
 -0.20238979E-03  0.36425313E-03 -0.21293482E-04 -0.17912263E-04 -0.10368393E-04
 -0.40667448E-04 -0.12255803E-03  0.40933405E-05  0.82202580E-06 -0.67170685E-06
 -0.78207340E-06 -0.79313740E-05  0.15677850E-04 -0.28910882E-05 -0.50197196E-05
  0.24338719E-05 -0.64244668E-05  0.42477100E-04 -0.31856189E-04 -0.34289168E-04
 -0.12876522E-04 -0.18876238E-04  0.48646807E-04 -0.63251204E-05 -0.45302083E-04
 -0.51959680E-06  0.10238559E-05  0.26600335E-05 -0.43315465E-06  0.13086465E-05
  0.70278979E-06 -0.85662215E-07 -0.21038184E-05 -0.21638101E-05 -0.22482470E-04
 -0.13893089E-04  0.29291820E-04  0.58393230E-05  0.22785973E-04 -0.67875664E-05
 -0.31906005E-05  0.10683027E-04 -0.25307427E-04 -0.16900814E-05 -0.74806669E-06
  0.31949481E-05  0.12548639E-05 -0.45085383E-05 -0.94392674E-06  0.74071371E-06
  0.10361545E-06 -0.11849350E-05 -0.89643827E-06 -0.86836071E-07  0.17825026E-05
  0.20259874E-05 -0.57784593E-07 -0.66789123E-06 -0.36598104E-06  0.14984124E-05
 -0.37077719E-06  0.97586776E-07 -0.18075633E-05 -0.53542168E-06  0.51415245E-06
  0.31253602E-05 -0.78132396E-06 -0.66444085E-06  0.76179084E-06  0.23053405E-06
  0.50365244E-06 -0.19649032E-05 -0.30196532E-06  0.11976342E-05 -0.27981940E-05
  0.19356890E-05 -0.61617047E-06  0.81813915E-06 -0.22183613E-05  0.22160009E-05
  0.10410395E-05 -0.47760678E-06  0.31741993E-05 -0.28186629E-05 -0.45376414E-06
  0.12373058E-05  0.33272171E-05 -0.19331893E-05 -0.17320198E-04 -0.49805363E-05
 -0.21775579E-04  0.57193474E-05  0.42103895E-05  0.85922702E-04  0.34252826E-04
 -0.25270470E-07  0.14615797E-05  0.16606976E-05 -0.23402624E-06  0.25964636E-06
 -0.33117049E-06  0.35473183E-06 -0.10351715E-05 -0.75426333E-06 -0.94164787E-06
 -0.21524550E-05  0.33222120E-04  0.17757225E-04 -0.18526352E-05 -0.42383416E-04
  0.29371077E-04  0.13352778E-04  0.67524098E-05 -0.13132542E-04 -0.14984123E-04

  0.38129694E-05  0.89467480E-05  0.15515349E-04 -0.91914860E-05 -0.94050766E-05
 -0.41190138E-05  0.14400040E-04 -0.11828571E-04  0.18562051E-04 -0.93434755E-05
  0.28987478E-04  0.25971932E-04 -0.14072595E-04  0.34096474E-04 -0.17828434E-05
  0.36601148E-05  0.58137547E-05  0.45673219E-05  0.37101203E-03  0.11320284E-03
  0.15765722E-03  0.49142958E-03 -0.12157869E-04 -0.13562330E-03  0.35018103E-03
  0.68907067E-04  0.17267518E-04  0.25400481E-04 -0.18514069E-04  0.69532483E-05
  0.16500403E-04 -0.17923835E-04 -0.25133136E-04 -0.84248732E-05  0.45961611E-05
 -0.21022011E-05 -0.94772952E-04 -0.91795649E-05  0.15509556E-03  0.78345725E-04
 -0.61280688E-04  0.26202341E-03  0.72271423E-04  0.15185060E-03  0.22061518E-03
 -0.55883535E-06  0.31379252E-04 -0.53236234E-05 -0.24878628E-04 -0.61220759E-05
  0.41105099E-05  0.18650562E-05 -0.18495234E-04 -0.10114689E-04 -0.53295139E-05
 -0.16347117E-04 -0.19640406E-04  0.44896898E-05 -0.68930141E-06 -0.83459794E-05
 -0.55475105E-05 -0.95466873E-05  0.28153939E-05 -0.69006102E-05  0.61029090E-05
  0.77411936E-05  0.31335524E-05  0.33369367E-04 -0.18824020E-04 -0.26341429E-05
  0.96463677E-05 -0.35233440E-06  0.11713106E-04  0.95773403E-05 -0.36682795E-05
  0.22687912E-04 -0.46648554E-04  0.12669759E-04 -0.25812661E-05  0.94069883E-05
 -0.39097950E-05 -0.11143757E-05  0.35348379E-05 -0.30388500E-04 -0.11262109E-04
  0.49707239E-05 -0.46140006E-05  0.26084066E-05 -0.17531802E-04  0.39264506E-04
 -0.20501676E-03  0.41442418E-03  0.38414014E-04 -0.14443404E-03  0.65451036E-03
 -0.49604843E-04 -0.20768275E-04 -0.46485506E-05 -0.56546553E-04 -0.11314034E-03
 -0.53417222E-04 -0.14130900E-04  0.51591523E-05  0.54321108E-05 -0.16209106E-04
  0.78757988E-04  0.84468107E-04  0.22160026E-04  0.43444663E-02 -0.42363232E-03
 -0.10496863E-02  0.52743483E-03 -0.20846997E-03 -0.15407982E-03  0.42143507E-03
  0.48406379E-03 -0.37416646E-03  0.32688488E-04  0.41697054E-04 -0.43001733E-05
  0.32526863E-04 -0.43644291E-04  0.35394750E-04 -0.10189837E-04 -0.42567977E-05
 -0.32641316E-04  0.60845271E-03 -0.81965564E-04 -0.29038511E-03 -0.60213017E-03
 -0.11236515E-03  0.57646243E-04  0.67183232E-03 -0.11841604E-03 -0.20769836E-03
 -0.85076133E-06 -0.52210397E-06  0.14035769E-05 -0.14535870E-04  0.99250904E-05
  0.20013134E-04 -0.13475401E-04 -0.88562559E-05 -0.23598400E-04  0.65152053E-05
 -0.71910157E-04  0.38887659E-03 -0.34576251E-04 -0.17670280E-04  0.15843683E-04
 -0.34180164E-03  0.19985856E-03 -0.22297350E-04  0.59661438E-05  0.53869526E-05
  0.67463533E-05 -0.10829023E-05  0.12525620E-04 -0.11241148E-04  0.91733551E-05
 -0.77520228E-05 -0.33986833E-05 -0.10932681E-04 -0.21094027E-04 -0.15464691E-04
  0.25043644E-05  0.11343276E-04  0.30427848E-04 -0.12314800E-04 -0.59736655E-05
 -0.50401751E-05  0.56822324E-05 -0.92219296E-05 -0.17394499E-04 -0.14534671E-04
  0.17912755E-04  0.19350470E-05 -0.82488280E-06  0.66231948E-05  0.91400504E-05
 -0.94454682E-06  0.18668776E-04 -0.22048644E-04 -0.40894791E-05  0.14647958E-04
 -0.13923176E-04  0.74080713E-05 -0.60651277E-05  0.30823393E-04  0.11101083E-04
  0.10512990E-04  0.14521946E-04  0.18335168E-04  0.98441280E-05  0.76319567E-05
  0.28545265E-04  0.13379587E-04  0.14268527E-04 -0.22781481E-03  0.30349047E-04
  0.38912112E-03 -0.48908841E-04  0.19862820E-03  0.45555516E-04  0.51677958E-04
  0.28337788E-03  0.13243389E-03 -0.54162355E-05  0.14601074E-04  0.78058665E-06
 -0.12698488E-05 -0.39366301E-04  0.30991710E-04  0.86061126E-05 -0.20901580E-05
 -0.40834305E-06 -0.21325730E-03  0.10393352E-03 -0.47700095E-03  0.16071269E-04
  0.46569380E-04  0.40565328E-03 -0.12080557E-03  0.24159296E-03 -0.25216355E-03

  0.10991395E-04 -0.45104962E-05  0.18349224E-04 -0.38013925E-05  0.25236911E-04
 -0.14796998E-04  0.11416162E-04  0.12363864E-04 -0.51980307E-05 -0.17739871E-04
 -0.23985536E-04 -0.97523617E-05  0.73886967E-05 -0.38049359E-05 -0.38758855E-04
 -0.79259820E-06  0.15146819E-04 -0.66961501E-05  0.21227175E-04  0.22447196E-03
  0.56656674E-04 -0.32929904E-03  0.21505507E-03 -0.13872441E-03  0.13929190E-03
 -0.38434224E-03  0.12885570E-03 -0.17866187E-04  0.15066464E-04  0.24771246E-05
 -0.17466056E-04 -0.10978799E-04 -0.15397255E-04 -0.59057981E-05 -0.36903352E-05
  0.98507907E-05  0.12990328E-03 -0.14136498E-03  0.16284453E-03 -0.12521184E-03
  0.17896713E-03 -0.14555186E-03  0.18476382E-03 -0.13480366E-03  0.64655658E-04
  0.10234869E-04  0.39984393E-04 -0.13518408E-05  0.26424564E-05 -0.49496240E-04
  0.16308226E-04 -0.98337218E-05  0.10614180E-04  0.13362363E-04  0.36309244E-06
 -0.41709958E-04  0.80759586E-05 -0.46800282E-05 -0.29959545E-04 -0.19326485E-04
 -0.67083752E-05 -0.31094054E-05  0.35095202E-05 -0.27469523E-06  0.19027699E-04
  0.70306885E-05  0.60198399E-05 -0.19392746E-04 -0.64840613E-05  0.20551531E-05
  0.42254500E-06 -0.12876910E-04 -0.10493819E-04  0.52797107E-04  0.50431091E-07
 -0.25587583E-04  0.98056177E-04 -0.64405405E-05  0.13398998E-04 -0.37597806E-05
 -0.87644991E-06  0.23521837E-04  0.30569578E-05 -0.14713218E-04 -0.11147341E-04
 -0.73521252E-04  0.37639155E-04 -0.50778994E-04 -0.92883401E-05 -0.34279518E-04
  0.28580061E-03 -0.98131131E-05 -0.27872321E-03  0.28516507E-04 -0.13353567E-03
 -0.12864828E-03 -0.19077549E-04  0.11282847E-03 -0.64020593E-04  0.45594068E-04
  0.16254396E-03  0.18544154E-03  0.88419283E-04  0.12974865E-03 -0.86195153E-04
  0.73092498E-05 -0.18142983E-04 -0.14050302E-03 -0.42363232E-03  0.41970557E-02
  0.16393020E-02 -0.23555936E-02  0.80024237E-03  0.23948937E-03  0.10335774E-03
  0.53648975E-04  0.11593839E-02  0.91564646E-06  0.37839841E-04  0.26974561E-04
  0.56348508E-06 -0.32486231E-04 -0.30998602E-04 -0.65581389E-06 -0.61838599E-06
  0.11493424E-04  0.12402504E-03 -0.26347348E-04 -0.15919715E-04 -0.24774015E-03
  0.10139189E-02  0.15327887E-03 -0.37565256E-03 -0.20714447E-04 -0.49795090E-05
  0.30983831E-05 -0.42693151E-04 -0.12543937E-04 -0.17255666E-05 -0.14918283E-05
 -0.16216480E-04 -0.88821365E-05  0.71522720E-05 -0.46640761E-05  0.18830761E-03
 -0.96872362E-04 -0.20958662E-03 -0.14681936E-03 -0.15063965E-03 -0.15927054E-04
  0.14458151E-04 -0.45120497E-04  0.21085772E-03  0.67829103E-05 -0.22052637E-04
  0.22745615E-05 -0.15679586E-04  0.63627974E-05  0.13963831E-04 -0.18345774E-04
  0.75642798E-05 -0.17375953E-04 -0.29219659E-05  0.60112222E-04 -0.29035815E-04
 -0.10952661E-04 -0.59950771E-04  0.21824578E-04 -0.14579453E-05 -0.99234275E-05
 -0.15357754E-04 -0.97171868E-05  0.34142297E-04  0.17693923E-04 -0.72448973E-05
  0.28340513E-05 -0.12594199E-04  0.14603379E-04 -0.56143852E-05  0.24792082E-05
 -0.66641087E-05  0.13254151E-04  0.97753052E-05 -0.15815539E-04  0.81901588E-05
 -0.11578875E-04  0.28207007E-05  0.71053388E-05  0.16368696E-04 -0.25565372E-04
  0.15219423E-04  0.61635389E-05 -0.20398926E-04  0.10107176E-05  0.58671916E-05
 -0.12038651E-04 -0.15214903E-04  0.92867507E-06  0.14543027E-03  0.31890180E-03
  0.29761480E-03  0.85515755E-04 -0.14540543E-03 -0.62857300E-05 -0.41718250E-03
 -0.26431947E-03  0.28305189E-03 -0.16749993E-04 -0.18321366E-04  0.18658467E-05
 -0.23348482E-04  0.21493150E-05  0.56839360E-05  0.16048627E-04 -0.28281170E-05
  0.12439910E-04 -0.26790123E-04 -0.33355132E-03 -0.41464757E-05 -0.35852240E-03
 -0.35371033E-03 -0.86777902E-04 -0.43575966E-03 -0.25648187E-04  0.10762630E-03

  0.83295581E-06 -0.44509864E-04  0.45128116E-04 -0.20320543E-05 -0.39888462E-04
 -0.17468076E-04  0.90083103E-06  0.71832403E-05 -0.60010034E-05 -0.79332968E-05
 -0.65332316E-05 -0.52753432E-04 -0.10239347E-04 -0.20720800E-04  0.50257782E-04
  0.99744748E-05  0.12581437E-04  0.19745124E-04  0.34261949E-03  0.56296931E-04
  0.29648785E-03 -0.84446485E-03  0.36536347E-03  0.13854547E-03  0.16117699E-03
 -0.35683080E-03  0.59012093E-03 -0.20116941E-05  0.10952710E-05  0.54138631E-04
 -0.37140426E-04 -0.16213268E-04  0.53652020E-04 -0.15106475E-04  0.16511420E-05
 -0.14754346E-04  0.14456479E-03 -0.26728672E-03 -0.35817768E-03 -0.23088623E-04
  0.33490735E-03 -0.24983865E-03  0.29856331E-03 -0.15813810E-03  0.18181555E-03
 -0.77940726E-06 -0.17044613E-04 -0.24988893E-04 -0.15728034E-04  0.39054788E-05
 -0.34547525E-04 -0.61244708E-05 -0.97640056E-06  0.15845157E-04 -0.12646091E-04
 -0.22367376E-04  0.72027376E-05 -0.98253356E-05 -0.28714647E-04 -0.34555177E-05
  0.17116394E-05 -0.43684401E-05 -0.45647337E-05  0.12660515E-04 -0.79238544E-05
  0.15692044E-05 -0.11412544E-04 -0.97800448E-05  0.48757225E-05  0.11531066E-04
 -0.33693535E-05  0.49976296E-05 -0.34720740E-05  0.30651408E-04 -0.16727987E-04
 -0.18485283E-06 -0.70413079E-05 -0.72848070E-05 -0.74473816E-05  0.78617118E-05
 -0.97453362E-05 -0.14042690E-04  0.43788925E-05  0.21103050E-04 -0.81485066E-05
 -0.55147706E-04  0.12706767E-04 -0.27910783E-04 -0.19379105E-04 -0.36084037E-04
  0.27441121E-03 -0.23630125E-03 -0.15770997E-03 -0.39084436E-04 -0.18328333E-03
  0.18458135E-03 -0.90667351E-05 -0.11804757E-03 -0.14134166E-04  0.82344687E-04
  0.38751710E-03  0.12910086E-03  0.14825709E-03 -0.16595092E-03  0.13901413E-03
 -0.27530554E-04 -0.19637598E-04 -0.20238979E-03 -0.10496863E-02  0.16393020E-02
  0.78278633E-02 -0.37689294E-02 -0.48350374E-03  0.19218917E-02 -0.30626743E-03
 -0.24279228E-03  0.11803219E-02 -0.36741379E-04 -0.11786270E-04  0.61108328E-04
 -0.73089085E-05  0.64261015E-04 -0.13084019E-03 -0.70922454E-05  0.25428816E-04
  0.18605187E-04 -0.13090463E-03 -0.35736778E-03  0.52919469E-03 -0.92347610E-04
  0.74812199E-03 -0.73769429E-04 -0.45842357E-03 -0.26737179E-03  0.95391366E-03
 -0.18069517E-05 -0.21525593E-04 -0.33710175E-04  0.28064469E-04 -0.14780021E-04
 -0.71583260E-04 -0.43354477E-05  0.17505819E-04  0.27859885E-04  0.51165425E-03
  0.64376402E-05 -0.32154870E-03  0.37440259E-04 -0.63860674E-03  0.26900232E-04
  0.62554439E-04 -0.26051594E-03 -0.35683757E-03  0.85701024E-05  0.26028112E-04
  0.42463459E-05 -0.35506649E-04  0.39351921E-04  0.14252077E-05 -0.48385656E-06
 -0.75967158E-05 -0.91552883E-05 -0.13608320E-04  0.28419434E-04 -0.29173382E-04
 -0.33111602E-04  0.24247980E-04 -0.54094965E-04 -0.48347008E-05  0.17726394E-04
  0.51652289E-05 -0.11095393E-04  0.10007038E-04  0.36480510E-04  0.18432949E-06
 -0.52693747E-04  0.34111232E-04  0.17709022E-04 -0.32282389E-05 -0.10301186E-04
 -0.24863240E-04 -0.58326703E-05  0.22557566E-04 -0.14541773E-04  0.12842340E-04
 -0.31650555E-04  0.93586883E-05 -0.12195433E-04  0.94722985E-05  0.39266241E-05
  0.10651440E-04 -0.23624525E-04 -0.10056666E-04 -0.31576538E-04  0.16870539E-04
  0.14195535E-04  0.93283426E-05  0.37517775E-06  0.11601825E-03  0.42467973E-03
  0.23079030E-03 -0.13161719E-03 -0.51738368E-03  0.13963614E-02 -0.16706575E-03
 -0.17118962E-03 -0.48894577E-04 -0.15521815E-04 -0.27542436E-04  0.24364035E-05
 -0.14105838E-04  0.59939127E-05 -0.25637887E-04  0.11390594E-04  0.10589671E-04
  0.30755596E-04 -0.43202452E-03 -0.46921342E-03 -0.10050358E-03  0.12464339E-03
 -0.12227144E-03 -0.53248582E-03 -0.57012205E-04  0.19523806E-03  0.36621129E-03

  0.68760015E-04  0.26642841E-04 -0.14707874E-04  0.13800034E-04  0.80914762E-04
  0.29998037E-04  0.31427869E-04 -0.34461459E-04 -0.30454233E-06  0.37916337E-04
  0.29401166E-04  0.18610914E-04 -0.32581529E-04  0.69822018E-04  0.10228919E-04
 -0.96877429E-05 -0.66444896E-04  0.82767608E-04  0.35398303E-03  0.87646756E-03
 -0.33208501E-04  0.40661323E-02 -0.81691290E-03 -0.67149139E-03 -0.24643165E-03
 -0.18556382E-03 -0.33180207E-03 -0.48270733E-05 -0.82556472E-05 -0.36673638E-04
  0.12656015E-04  0.46145173E-04  0.52155374E-04  0.28593759E-04  0.57718668E-05
  0.20017784E-04 -0.23109428E-03  0.55842652E-04  0.32017649E-03  0.26945270E-03
  0.48063115E-03  0.37015907E-03 -0.17875917E-03  0.48501605E-03  0.50337251E-03
  0.29243395E-04  0.64896925E-05  0.99449614E-05  0.56308498E-04  0.26292545E-04
 -0.92284355E-05 -0.12967403E-04 -0.95200191E-06 -0.16024986E-04  0.12123022E-04
  0.13088792E-04  0.43655695E-04  0.26114669E-04 -0.23812171E-04  0.20281825E-04
 -0.86984311E-05  0.12572269E-04 -0.30474093E-04  0.17699771E-04 -0.21620831E-04
 -0.53530321E-05  0.62940767E-04 -0.41198619E-04  0.30512452E-04 -0.35235239E-04
  0.42422458E-05 -0.11553578E-04  0.30032092E-04 -0.48187503E-04  0.37374268E-05
  0.99095403E-04 -0.66708064E-05  0.15695610E-04  0.16546851E-04  0.22776172E-04
 -0.12002788E-05  0.54373759E-04 -0.38619272E-04  0.11726083E-04 -0.30417624E-04
  0.18029586E-03 -0.13108717E-04 -0.28804084E-05 -0.95450282E-05 -0.31035512E-04
 -0.95552371E-04 -0.18950858E-03  0.19681116E-03 -0.18236820E-03 -0.34390470E-04
 -0.68392096E-03 -0.41321423E-03  0.40856062E-04  0.73581168E-05 -0.77376143E-04
 -0.52751204E-03 -0.37348839E-03 -0.32431286E-03  0.81071006E-04 -0.29593827E-04
  0.16076626E-05  0.15839001E-06  0.36425313E-03  0.52743483E-03 -0.23555936E-02
 -0.37689294E-02  0.25133526E-01 -0.47098337E-02 -0.89070395E-02  0.61967287E-04
 -0.13185510E-02 -0.32394211E-02  0.18396019E-04 -0.17970909E-04 -0.65144932E-04
 -0.43620273E-04 -0.41854549E-04  0.14279134E-03 -0.53708541E-05 -0.39293028E-04
 -0.19811526E-04 -0.90688246E-03  0.60004669E-04  0.12632107E-03 -0.69898996E-03
  0.28143112E-03  0.37415522E-03 -0.31805895E-03 -0.64566726E-03 -0.70853805E-03
 -0.16196274E-04  0.20837836E-04 -0.40974929E-05  0.16548111E-04  0.19446939E-04
  0.50148835E-04  0.30745868E-04 -0.37235735E-04 -0.27561922E-04 -0.71727592E-03
  0.94077883E-04  0.91338695E-03  0.28957393E-03  0.66664214E-03  0.20808400E-03
  0.61751630E-03  0.31948635E-03  0.25106890E-03 -0.51048802E-05  0.22988481E-04
  0.38533789E-04  0.13400685E-04 -0.35340164E-04 -0.18970574E-04 -0.48431410E-04
 -0.70031850E-05  0.30856821E-04 -0.40961527E-04  0.44534108E-04  0.73671070E-05
  0.92503450E-04  0.29319644E-04 -0.35245890E-05  0.21455774E-06  0.62667698E-04
  0.98096355E-05 -0.15280848E-04 -0.16918630E-04 -0.12215041E-04  0.83692606E-04
  0.22588327E-04  0.60134659E-05 -0.98236209E-05  0.39415666E-04 -0.12360624E-04
  0.19045285E-04 -0.27605429E-04  0.29207251E-04  0.60721599E-04 -0.20932440E-04
  0.26251086E-04  0.92570267E-05  0.28157362E-04 -0.20256071E-04  0.32657443E-04
  0.79682562E-04 -0.21081797E-04  0.35073440E-04 -0.72696431E-05  0.43294548E-04
  0.47731900E-04  0.49518033E-04  0.92979105E-05 -0.75341806E-03  0.41675019E-03
  0.32784598E-04  0.13929183E-02 -0.32814713E-03  0.13359330E-02  0.60231312E-03
 -0.27800491E-03 -0.76997704E-04  0.39280863E-06 -0.83304467E-05 -0.17520887E-04
 -0.76831398E-04  0.55395065E-04  0.35449726E-04 -0.21192021E-04 -0.15728196E-05
  0.34815672E-06  0.20366095E-03 -0.15231174E-03  0.11690897E-03 -0.83612557E-03
  0.90157638E-04  0.97350381E-04 -0.22920988E-03 -0.21729548E-04 -0.83000145E-04

 -0.19581888E-04 -0.27225379E-04 -0.14840021E-04 -0.73971568E-05  0.31918885E-04
 -0.94461342E-05 -0.63053560E-06  0.83947467E-05  0.28474860E-04 -0.96600515E-05
  0.37371643E-04  0.25644854E-04  0.96960415E-05 -0.27391863E-04 -0.17159015E-04
  0.18469478E-04  0.17575289E-04 -0.39645048E-04 -0.40756635E-04  0.13356463E-03
  0.13020360E-03 -0.31682302E-03 -0.41358172E-03  0.28399726E-04 -0.16164822E-03
 -0.10104025E-03  0.28832477E-03 -0.16807697E-04  0.16683703E-04 -0.20451089E-04
  0.41394624E-05 -0.22516548E-04 -0.50124963E-04 -0.51893950E-05 -0.17152786E-04
 -0.23777467E-04  0.15298746E-03  0.14471176E-03 -0.16009365E-04  0.12994756E-03
 -0.36496321E-03  0.28196969E-03  0.19725608E-03  0.25367429E-03 -0.11794768E-03
 -0.42090325E-05 -0.30824315E-04  0.14308664E-04  0.70901273E-05 -0.31192083E-04
  0.32958753E-05  0.26926355E-04 -0.99634196E-06  0.31871788E-04  0.41856374E-04
  0.41069961E-04 -0.15083670E-04 -0.16029727E-04  0.86012378E-04 -0.13745851E-04
 -0.17220574E-04  0.63778729E-05  0.24601867E-04  0.96308905E-05  0.14560664E-04
  0.11208049E-04 -0.16141958E-04  0.33812645E-04 -0.86899707E-05 -0.79644223E-05
 -0.21985694E-05 -0.96007554E-05 -0.24562342E-04  0.10247009E-03 -0.26492945E-05
 -0.37172409E-04  0.74342082E-04 -0.23590697E-05 -0.14994861E-04  0.58892889E-05
 -0.93680301E-05 -0.77960397E-05  0.80501544E-05 -0.16579066E-04  0.28993388E-04
 -0.12288922E-03  0.30386079E-04  0.53133495E-05  0.17884241E-05  0.24023257E-04
 -0.12118956E-04 -0.33987219E-04 -0.93397252E-04  0.40651133E-04  0.15277613E-03
  0.27959680E-03 -0.12939374E-03 -0.24696569E-04  0.27595871E-03  0.28658646E-04
 -0.76000925E-04  0.16596707E-03  0.17641202E-04  0.23339260E-03 -0.15209068E-03
  0.19779783E-04 -0.24728586E-04 -0.21293482E-04 -0.20846997E-03  0.80024237E-03
 -0.48350374E-03 -0.47098337E-02  0.66659419E-02 -0.28785050E-02 -0.19113340E-03
  0.65336603E-03  0.11831676E-02 -0.23556883E-04  0.86893758E-04 -0.24402092E-04
  0.19305949E-04  0.37343103E-04 -0.34528988E-04  0.11847875E-04 -0.27771239E-04
  0.27585500E-04  0.44350446E-03 -0.11399100E-03 -0.16598877E-04  0.34351888E-03
 -0.16106034E-02 -0.55542269E-05  0.28999351E-03  0.34057020E-03 -0.21899953E-03
  0.80613942E-05 -0.20447278E-04 -0.17177902E-04  0.14822848E-04 -0.11094708E-04
 -0.64996706E-05  0.20629442E-05  0.18410183E-04  0.16419619E-04  0.15326020E-03
  0.33470909E-03 -0.25032526E-03 -0.46746879E-04 -0.46907193E-03  0.54943400E-04
 -0.21297219E-03 -0.67107577E-04 -0.94291456E-04  0.47903964E-06 -0.23813445E-05
 -0.60239718E-06 -0.27096740E-05  0.10976727E-04  0.10028173E-05  0.13027660E-04
  0.27446834E-05 -0.11725862E-04  0.17774563E-04 -0.34212783E-04  0.14015755E-04
  0.16252803E-04 -0.12882577E-03  0.32675104E-04 -0.67558845E-06 -0.11748656E-04
  0.78927421E-05  0.21497616E-05  0.19366732E-04 -0.12035951E-04 -0.13257234E-04
 -0.31793098E-04  0.10701298E-04  0.11236005E-04 -0.64908880E-05 -0.47774600E-05
 -0.23993313E-04  0.26196218E-05 -0.21797943E-04 -0.43027082E-05 -0.27290761E-04
  0.25830781E-04 -0.29571564E-05  0.38760943E-05 -0.14440717E-04 -0.20332924E-04
 -0.27530862E-04  0.25048118E-04 -0.17174101E-04  0.79044095E-04 -0.86616542E-05
 -0.18431481E-04 -0.40950657E-05 -0.28442412E-04  0.24792218E-03 -0.15909796E-03
  0.30536324E-03 -0.38953432E-03  0.66885122E-03 -0.12526018E-02 -0.19328009E-04
  0.30898632E-04  0.42218192E-03  0.11735356E-04  0.46083349E-05  0.15787532E-04
  0.22542486E-04 -0.13519169E-04  0.59699943E-05  0.62276259E-05  0.57893367E-05
  0.20297348E-04 -0.11722873E-03  0.13882857E-03  0.36329864E-05 -0.63007022E-04
  0.17151025E-03  0.62731728E-04 -0.24467319E-03  0.52439918E-04 -0.31176252E-04

  0.17487728E-05  0.21716379E-04  0.22566963E-04  0.36547684E-05 -0.63895545E-04
 -0.21091149E-04 -0.41852014E-05 -0.20862325E-04 -0.40505315E-04 -0.35577647E-04
  0.28248239E-04 -0.62852660E-04 -0.95008914E-05 -0.88932750E-05  0.24165970E-04
 -0.26150854E-04 -0.21163939E-05 -0.20557579E-05  0.40992350E-03  0.15748423E-03
  0.14990041E-03 -0.12122074E-02  0.41439458E-03 -0.80064998E-03 -0.44310811E-03
 -0.48756064E-03 -0.41893970E-03  0.10904485E-04 -0.14937277E-04 -0.25758184E-04
 -0.10166846E-04 -0.33682030E-04  0.96297640E-04  0.12967341E-04  0.18836240E-04
 -0.50575713E-04 -0.32910666E-04  0.37045272E-04 -0.36419246E-03 -0.18090475E-03
  0.57326672E-03 -0.11408181E-02 -0.77991152E-04 -0.31312277E-03 -0.41736364E-04
 -0.17557064E-04  0.80542077E-04 -0.44466116E-06 -0.13243404E-04  0.15383454E-04
  0.22778786E-04 -0.68719032E-05  0.14877790E-04  0.11276790E-04 -0.24987831E-05
 -0.66947208E-04 -0.17053680E-04  0.21466871E-04 -0.37900546E-04 -0.32680040E-04
  0.14880216E-04 -0.91281688E-05  0.20802476E-04 -0.30235248E-04  0.42000863E-05
  0.10963276E-04  0.94659101E-05  0.10736419E-04 -0.16602190E-04  0.24749590E-04
  0.80151339E-05  0.20765466E-04  0.26571349E-04  0.24464389E-04 -0.35315871E-04
 -0.18175527E-04 -0.49456374E-04 -0.40487781E-04  0.10772191E-04 -0.56721165E-04
 -0.19399453E-05 -0.38888093E-04 -0.17179082E-04  0.48898036E-04  0.32969639E-04
 -0.31817614E-04 -0.85237170E-04  0.40560623E-05 -0.12367467E-05  0.11254333E-04
 -0.12290675E-03  0.41111493E-03  0.48271213E-03 -0.18821721E-03  0.82102566E-03
 -0.19190317E-03 -0.86035436E-04  0.66622716E-05 -0.14893564E-03  0.64193136E-04
  0.43936689E-03 -0.66063678E-04  0.12622173E-03 -0.34355495E-03  0.42174153E-03
 -0.89897666E-04  0.21297953E-04 -0.17912263E-04 -0.15407982E-03  0.23948937E-03
  0.19218917E-02 -0.89070395E-02 -0.28785050E-02  0.22304985E-01 -0.55745757E-03
 -0.28182982E-02  0.26529894E-02 -0.16954386E-04 -0.17672979E-04  0.52289927E-04
  0.16890364E-05  0.54306165E-04 -0.11470485E-05 -0.38457736E-04  0.86250936E-04
  0.67749617E-04  0.52968650E-03 -0.30672786E-03 -0.15550807E-03 -0.12606682E-03
  0.93541168E-03  0.28188151E-03  0.24321215E-03  0.39665377E-03  0.58249409E-03
  0.15643378E-04 -0.14475834E-04  0.14569897E-03 -0.24708635E-04  0.19588699E-04
 -0.17372639E-04 -0.64201250E-06 -0.29266886E-04  0.36637314E-04  0.25615142E-04
 -0.48407207E-03  0.37225109E-04 -0.24997068E-04  0.60077456E-04 -0.30804429E-03
 -0.24879717E-03 -0.44406775E-04  0.14897601E-03 -0.60897859E-05 -0.38933137E-05
  0.35012880E-05 -0.66572211E-05 -0.62530701E-05  0.15293495E-04  0.22997514E-04
  0.20452385E-04 -0.80316029E-05 -0.14470574E-04 -0.33229522E-04 -0.12996731E-03
 -0.41544958E-04  0.46449209E-04 -0.59174050E-04 -0.21265665E-05 -0.16301201E-04
 -0.42076741E-04  0.13953412E-04  0.34373871E-04  0.75169509E-04 -0.14081375E-04
  0.16313719E-04 -0.36730070E-04  0.98897563E-05 -0.58082061E-05  0.43401755E-05
  0.23327186E-04  0.17053887E-04 -0.67344479E-04 -0.20706188E-04  0.57785716E-04
 -0.10366424E-03 -0.21083768E-05  0.18046714E-04  0.28791064E-04 -0.19950009E-05
 -0.91635920E-05 -0.55551214E-05 -0.91334107E-05 -0.59196300E-04 -0.53639308E-04
 -0.17564232E-04 -0.61695891E-04  0.15286484E-04  0.71088867E-04 -0.62195693E-04
  0.36115193E-04 -0.48279307E-03 -0.67539092E-03  0.19968508E-02 -0.45873987E-03
 -0.42286200E-03 -0.37142945E-03 -0.37638843E-04  0.30308370E-04 -0.36793175E-05
  0.15637407E-04  0.18176844E-05 -0.28333113E-04  0.25039957E-04 -0.24249363E-04
 -0.13184673E-04  0.68544310E-03  0.34933227E-03 -0.59671961E-03 -0.32524794E-03
  0.14147343E-03 -0.37999989E-03  0.32125356E-03  0.24759299E-03 -0.20791250E-03

 -0.21918575E-04 -0.12135414E-04  0.47932799E-05  0.40209345E-05  0.42648776E-04
 -0.42005576E-05 -0.70284493E-05  0.12190589E-05  0.13671762E-04  0.50275046E-05
 -0.11368630E-04  0.29799839E-05  0.14939238E-04  0.94152805E-05 -0.37861574E-05
  0.11478580E-05  0.70003700E-05 -0.11617630E-04  0.30216129E-04 -0.21671647E-04
 -0.13841395E-03  0.28619250E-04  0.80375720E-04 -0.54277621E-04  0.24481965E-03
  0.10294924E-03  0.10090008E-03 -0.75337889E-05  0.11509412E-04  0.89809255E-05
 -0.11297266E-05 -0.28729505E-04  0.17949802E-04 -0.12599963E-04 -0.59389881E-05
  0.12577358E-04  0.11495651E-03  0.18559916E-03  0.11070474E-03  0.64739431E-04
  0.12697337E-03  0.28297877E-03  0.11150095E-03  0.29719478E-04  0.33595041E-03
  0.92698044E-05  0.80736034E-05 -0.68435363E-05  0.99328002E-05 -0.24834645E-04
  0.14065578E-04  0.20109030E-05  0.47090616E-05 -0.88129563E-05 -0.31108336E-05
  0.17747468E-04  0.13114793E-04 -0.12149249E-04 -0.97084767E-05  0.48700599E-05
 -0.13211820E-05  0.11306702E-05 -0.33923698E-05  0.54503489E-05  0.25120734E-04
  0.27561628E-05 -0.14594021E-05  0.24845832E-05  0.28985458E-05 -0.15843525E-04
 -0.18964913E-05  0.25632736E-05  0.84447364E-05 -0.48786947E-05  0.18886229E-05
  0.83678173E-06  0.28449259E-04 -0.11936413E-04  0.19158470E-04 -0.64358826E-06
  0.10891508E-04  0.19240161E-04 -0.24840385E-04 -0.31852966E-05  0.12481407E-04
 -0.10389144E-04 -0.65842743E-05 -0.53970252E-05 -0.71638536E-05  0.73965504E-05
  0.32654948E-04  0.19520315E-03  0.13026910E-03  0.82793689E-04  0.76630972E-04
 -0.64705947E-04 -0.57654386E-04 -0.12059802E-03  0.13401313E-03 -0.11789690E-03
 -0.53882947E-04 -0.91107563E-05  0.49248448E-05  0.45471825E-05  0.19158675E-05
  0.58316324E-04  0.84702789E-04 -0.10368393E-04  0.42143507E-03  0.10335774E-03
 -0.30626743E-03  0.61967287E-04 -0.19113340E-03 -0.55745757E-03  0.36768223E-02
  0.14580112E-02 -0.67969249E-03  0.36024118E-04  0.29032703E-04 -0.18990507E-04
 -0.15185874E-04 -0.13916194E-04  0.22899944E-04  0.83410563E-05  0.72676951E-05
 -0.37047421E-04 -0.30713274E-03  0.28763901E-03  0.24899241E-03  0.60629867E-04
  0.42238707E-03 -0.82884005E-04 -0.29111349E-03 -0.23325476E-04 -0.15353241E-04
  0.25248208E-05 -0.11226528E-04 -0.43155549E-05  0.10348567E-06 -0.24767544E-04
  0.10897700E-04  0.29187104E-05  0.62907669E-05 -0.14056841E-04 -0.21547692E-04
  0.33548438E-03  0.23926014E-04 -0.49995487E-04  0.36311343E-03 -0.11338677E-03
 -0.10763741E-03  0.12390054E-03  0.15951351E-03 -0.20948464E-05 -0.22490625E-04
 -0.77966491E-05 -0.71831004E-05  0.25565822E-04 -0.69128243E-05 -0.15721992E-04
 -0.88335752E-05  0.98064591E-05  0.11704537E-04  0.51428751E-05  0.50241118E-05
 -0.23267394E-05  0.10952809E-04  0.72756200E-05 -0.53251324E-05 -0.42355188E-05
  0.89814506E-05  0.13010413E-04  0.85360384E-05  0.91716855E-06 -0.96361135E-05
  0.39449192E-04  0.48809588E-05 -0.31843282E-05 -0.10767802E-05  0.17526053E-04
 -0.10507019E-04  0.10766321E-04  0.46767059E-05  0.68173410E-05 -0.19231442E-04
  0.73683385E-06  0.19265799E-04 -0.48186528E-05  0.11526172E-04 -0.43415856E-05
  0.25025004E-04 -0.23098142E-04 -0.18148259E-04  0.60640002E-04 -0.14095884E-04
 -0.15205537E-06 -0.14247959E-04 -0.71509557E-05  0.20161595E-03 -0.17690876E-04
  0.16081697E-03  0.28537467E-03  0.32180873E-03 -0.44960259E-03 -0.27211338E-03
 -0.14410785E-03  0.43538929E-04  0.10560068E-04 -0.25817750E-04 -0.83667430E-05
 -0.23021199E-06 -0.34737778E-04  0.39380380E-05  0.12179711E-04  0.57450944E-05
 -0.81757121E-05 -0.87866663E-05  0.89761777E-04  0.12822746E-03  0.44640654E-03
 -0.29759725E-03 -0.16410063E-03 -0.30758885E-04  0.39838444E-04  0.56184618E-04

 -0.14986779E-04 -0.12783080E-04  0.25614044E-04  0.10095569E-04  0.18460495E-05
 -0.35078841E-04 -0.45052181E-05 -0.10966173E-05  0.21722613E-04 -0.46309541E-05
  0.49887062E-04  0.19909058E-04 -0.18471774E-04  0.42911146E-04 -0.56202111E-04
  0.46899969E-05 -0.42439149E-05 -0.37715121E-04  0.32867517E-03  0.92967736E-04
  0.37641018E-03 -0.90774832E-03 -0.35499045E-03  0.53148756E-05  0.38870310E-04
 -0.84080176E-03 -0.34252811E-03 -0.32307984E-04  0.20339214E-05  0.12468778E-04
  0.14046177E-04 -0.45327046E-04  0.40934778E-04 -0.29131458E-04  0.25297201E-04
  0.34726563E-04 -0.50337097E-04 -0.19983744E-03 -0.10321662E-03 -0.18646595E-03
 -0.11636215E-03  0.55868023E-03  0.17025060E-05 -0.19621200E-03 -0.83230733E-04
  0.55379795E-05 -0.32486839E-04 -0.78604937E-05  0.19356583E-04  0.79371850E-05
 -0.33568436E-05  0.24699000E-04  0.18541805E-04  0.73057209E-05  0.78683919E-05
  0.11356221E-04  0.50119571E-04 -0.25987038E-04  0.70635627E-05  0.21308988E-04
 -0.11730769E-04 -0.19901418E-04  0.93181907E-05  0.14704646E-04  0.14762403E-04
  0.52342537E-05  0.13784599E-04 -0.30428726E-05  0.12951711E-04 -0.22669039E-04
  0.10237116E-04 -0.12645755E-04  0.62438087E-05 -0.14285938E-05  0.54938586E-04
 -0.10620027E-04  0.13570713E-04 -0.37078837E-04 -0.20927091E-04  0.95944549E-05
  0.21139595E-04  0.94688778E-05 -0.16240698E-04 -0.11823198E-04  0.50351567E-05
 -0.40720977E-04  0.41449807E-05 -0.21965173E-04 -0.13433228E-04  0.10416024E-04
  0.16036715E-03  0.10582930E-03  0.63483118E-04  0.63491377E-04  0.97841853E-04
  0.30856801E-03 -0.91014990E-04 -0.44519608E-04 -0.28416110E-03 -0.14963834E-03
 -0.92560613E-05  0.21239811E-04  0.85714098E-05  0.27196836E-04 -0.22013162E-04
  0.18499924E-03  0.61235236E-04 -0.40667448E-04  0.48406379E-03  0.53648975E-04
 -0.24279228E-03 -0.13185510E-02  0.65336603E-03 -0.28182982E-02  0.14580112E-02
  0.78704782E-02 -0.19827660E-03 -0.31096797E-04  0.12960255E-04 -0.96216542E-05
 -0.46388858E-04  0.30649918E-04  0.25575725E-04  0.41699857E-04 -0.22354130E-05
 -0.22977701E-04 -0.22602645E-04 -0.20097986E-03  0.34553636E-03  0.73437805E-04
 -0.28584233E-03  0.35517673E-03 -0.27071082E-03  0.84731893E-04 -0.33650915E-04
  0.64649648E-05  0.15850448E-04 -0.16114165E-04  0.23413443E-04 -0.89554750E-05
 -0.31654602E-04  0.27536685E-04  0.43402046E-04 -0.49974330E-05  0.71608374E-04
  0.43122367E-03 -0.46715092E-03 -0.10115092E-03 -0.10468368E-03 -0.14311963E-03
  0.94849682E-04  0.23379054E-04 -0.14209467E-03  0.28417674E-04 -0.39310643E-04
 -0.20738900E-04 -0.16066827E-05  0.30618329E-04 -0.11345350E-05 -0.17284326E-05
 -0.24756052E-04 -0.35211914E-05 -0.14913741E-04 -0.16245831E-04  0.17005667E-04
  0.50015292E-05 -0.13090564E-04  0.23413661E-04 -0.88156939E-06 -0.13426664E-04
  0.78502937E-05  0.25366047E-04 -0.74450617E-05 -0.78641018E-05  0.95906588E-06
  0.10572900E-04  0.17398933E-04 -0.14235847E-04  0.50318218E-05  0.81645315E-05
 -0.28541645E-04  0.86421117E-05  0.48166464E-05  0.19599376E-04  0.36410245E-05
  0.15712309E-04  0.30479760E-05 -0.25397134E-04  0.92157087E-05  0.87531278E-05
 -0.10623509E-04  0.19252439E-05  0.57520339E-05 -0.37461113E-05 -0.29472502E-04
 -0.25147628E-05 -0.11266350E-04  0.19402369E-05  0.13319941E-04  0.14472197E-03
 -0.39774162E-03 -0.13364377E-03  0.49026336E-04 -0.83861940E-03  0.47012109E-04
  0.70545443E-03 -0.19176832E-03 -0.68814504E-05 -0.12347948E-04 -0.40257073E-04
  0.84029733E-05 -0.26132838E-04 -0.14253704E-04  0.11728925E-04 -0.59053896E-05
  0.41720543E-05 -0.40629762E-04 -0.27866318E-04  0.48055569E-03  0.94348692E-04
 -0.16315633E-03  0.34583933E-03  0.22235326E-03 -0.96710543E-03 -0.12093230E-03

 -0.90397159E-05 -0.65208280E-05 -0.24321192E-04  0.10431010E-04 -0.17447668E-04
 -0.22920886E-04 -0.44570678E-05  0.13305946E-04 -0.86200526E-05 -0.13659727E-04
 -0.20122646E-04 -0.65335204E-05 -0.92296454E-05  0.23290240E-04 -0.11094693E-04
  0.87609100E-05  0.17355102E-04 -0.47563375E-05 -0.32429041E-03 -0.18923572E-03
  0.19542881E-03 -0.97032437E-03  0.47305291E-03  0.13980336E-03  0.10782753E-03
 -0.13309291E-03  0.30349388E-03  0.39321125E-06  0.20773534E-04 -0.14786516E-04
 -0.16511412E-04 -0.11771853E-04 -0.20235361E-04 -0.10910442E-04 -0.97455238E-05
 -0.31983751E-04  0.48233947E-04 -0.92824046E-04  0.82784716E-04 -0.17138898E-03
  0.24287319E-04 -0.18842654E-03  0.13358261E-03 -0.12605856E-03 -0.27980855E-04
  0.99202969E-06 -0.18697166E-04  0.32309825E-04  0.61611665E-05  0.44346597E-05
  0.56223788E-06  0.84206376E-05  0.11652309E-04  0.30901590E-05  0.16592578E-04
 -0.11207360E-04  0.48507207E-05 -0.15147527E-04 -0.10202872E-04  0.32346789E-04
 -0.11776742E-04 -0.51554021E-05  0.20915764E-05  0.17179891E-05 -0.13970201E-04
 -0.11052226E-04 -0.61257009E-05 -0.13908833E-04 -0.23662375E-05  0.18184251E-04
  0.76832388E-05  0.12411250E-04 -0.15363083E-04  0.20563373E-04 -0.22250230E-04
 -0.16288858E-04 -0.12289596E-04 -0.80023413E-05  0.32355112E-05 -0.70177373E-05
  0.13278641E-04  0.15714492E-04  0.42037843E-04 -0.24578398E-04 -0.86319420E-05
 -0.45094915E-04  0.19309043E-04 -0.35155085E-04 -0.19579681E-05  0.30136169E-05
  0.25353557E-03 -0.27224320E-03 -0.15520348E-03  0.91991881E-04  0.99821687E-04
 -0.33203084E-03  0.58391944E-04  0.59529562E-04 -0.59215098E-05  0.60430002E-04
  0.22594910E-03  0.13275149E-03  0.49673144E-04  0.12002294E-03  0.80829856E-04
 -0.14603670E-04 -0.58040334E-05 -0.12255803E-03 -0.37416646E-03  0.11593839E-02
  0.11803219E-02 -0.32394211E-02  0.11831676E-02  0.26529894E-02 -0.67969249E-03
 -0.19827660E-03  0.54598523E-02 -0.32130626E-04 -0.10657755E-04  0.30535480E-04
 -0.96112883E-05  0.25535016E-04 -0.50212508E-04 -0.23205927E-04  0.53231946E-05
  0.25072919E-04  0.28809181E-03 -0.94371366E-04 -0.54660592E-04 -0.39204254E-03
  0.35501222E-03  0.38693279E-03 -0.17133012E-03  0.33861717E-03 -0.15097887E-03
  0.28607957E-04 -0.71003086E-05  0.36530549E-04  0.12979977E-04 -0.34879800E-04
 -0.33631692E-04 -0.65313508E-05  0.11704322E-04 -0.18621168E-04  0.79725714E-04
  0.16067544E-03 -0.13464014E-03 -0.43446182E-04 -0.17826795E-03  0.63673941E-04
  0.11104314E-03 -0.73985676E-04 -0.23897549E-03 -0.76994939E-05  0.61582656E-05
  0.67270504E-05 -0.70202205E-05  0.47156167E-05 -0.24867576E-05  0.34233128E-05
  0.44842144E-05 -0.26470015E-04 -0.61346807E-08 -0.53953721E-06 -0.15418142E-04
 -0.20166074E-04 -0.60601819E-05 -0.37643290E-05  0.86120353E-05 -0.23850070E-04
  0.54123675E-05  0.13969393E-05  0.11745536E-04  0.12258295E-04 -0.17498448E-05
 -0.36115401E-04 -0.65507793E-05  0.15159761E-04 -0.31143580E-06  0.68136973E-06
 -0.51346707E-05 -0.20597296E-04 -0.22346005E-04 -0.11704851E-04  0.29650509E-04
 -0.14111690E-04  0.77870157E-05  0.97356915E-05  0.59800310E-05 -0.21699651E-04
  0.24206308E-05  0.27994846E-04 -0.14326441E-04  0.21749442E-05 -0.17971394E-04
 -0.84478448E-06 -0.20386345E-04  0.17318728E-04  0.11913620E-03  0.99308268E-04
  0.58085413E-03 -0.20911989E-03 -0.26112118E-03  0.32253582E-03 -0.75223641E-04
  0.91454456E-05 -0.36192031E-03 -0.20106395E-04 -0.26191652E-04 -0.18445454E-04
 -0.28185199E-05  0.72997058E-05 -0.92844004E-05  0.81613579E-05 -0.16286100E-04
  0.23177540E-04  0.18431178E-04 -0.81750016E-04  0.46435000E-04 -0.55075831E-04
  0.74682703E-04  0.95905808E-04  0.12101146E-04 -0.21176650E-03 -0.14520631E-03

 -0.12808657E-05  0.10321026E-06 -0.53389198E-06 -0.16173968E-05  0.55481022E-05
 -0.45068396E-06 -0.59765044E-06 -0.10404111E-05  0.10059372E-05  0.17221615E-05
 -0.23037925E-05  0.22022841E-05  0.22880169E-05 -0.28566171E-05  0.21783092E-05
  0.19875523E-05  0.66391149E-06  0.16796245E-05 -0.12873213E-04  0.69218965E-05
 -0.12288040E-04  0.42756698E-04 -0.13851222E-04  0.28205902E-05  0.16673003E-04
  0.23883794E-04 -0.98769945E-06  0.22663280E-05  0.13212478E-05  0.15572465E-05
 -0.18091727E-05  0.13652956E-05 -0.60799345E-06  0.18384944E-05 -0.18689802E-05
  0.65919637E-06 -0.19082109E-04  0.60434760E-05 -0.10681409E-05  0.21212703E-04
 -0.23364969E-04  0.17420602E-04 -0.12883349E-04  0.93979227E-05  0.14605766E-04
  0.18606832E-06 -0.12595778E-05  0.81279051E-06 -0.27669773E-05  0.11968356E-05
  0.18712601E-05  0.38826576E-06 -0.55216296E-06  0.45936076E-06 -0.14533422E-05
  0.67070519E-06 -0.15543663E-06 -0.12768147E-05 -0.32111414E-05  0.12704430E-05
 -0.57968581E-06  0.25061419E-06  0.66124284E-07 -0.17162953E-06  0.11077135E-05
  0.21943769E-06 -0.42277344E-06 -0.86899530E-06  0.98837708E-07  0.85809079E-06
  0.12314697E-05  0.49790918E-06 -0.12516779E-05  0.46534236E-06 -0.41099788E-06
  0.16069997E-05  0.11896871E-05 -0.90112433E-06  0.12407859E-05 -0.10057407E-05
 -0.18804532E-05 -0.27999522E-05 -0.98517920E-07 -0.37036779E-06 -0.21792976E-05
 -0.28805222E-06  0.32289732E-06  0.12607644E-05  0.65520395E-06  0.31863563E-05
 -0.11624944E-04 -0.31589447E-04  0.13219163E-04  0.62298648E-05 -0.54649899E-04
  0.29184322E-05 -0.87951697E-05 -0.66736382E-06  0.19239721E-04 -0.11767293E-05
 -0.32126336E-05 -0.41688849E-05  0.23974305E-05 -0.13743371E-05 -0.56354831E-05
 -0.62515576E-06  0.26022631E-05  0.40933405E-05  0.32688488E-04  0.91564646E-06
 -0.36741379E-04  0.18396019E-04 -0.23556883E-04 -0.16954386E-04  0.36024118E-04
 -0.31096797E-04 -0.32130626E-04  0.49607922E-04  0.37040153E-05  0.52298688E-05
 -0.53030748E-05  0.12243546E-05  0.10762387E-04 -0.11114002E-04  0.23991608E-05
 -0.35144118E-05 -0.86876530E-04  0.30377621E-03 -0.36551260E-04 -0.21638163E-03
  0.38139476E-03 -0.79841182E-04 -0.16233627E-03  0.24201911E-04 -0.87479539E-04
 -0.94320593E-06 -0.12450993E-05  0.17283624E-05 -0.11437276E-05 -0.25271146E-05
  0.11771728E-05  0.23003030E-05 -0.20113738E-05 -0.24232557E-05 -0.10631000E-04
 -0.36634789E-05  0.25826154E-04  0.15478928E-04  0.20272382E-05 -0.13943027E-04
 -0.10977177E-05  0.50287882E-06 -0.21523030E-05 -0.31230579E-05 -0.19492471E-05
 -0.65945861E-06 -0.21132407E-05 -0.19113262E-05  0.52632210E-06 -0.20522913E-05
 -0.47105805E-06 -0.28042670E-06  0.17774850E-05  0.42622773E-05  0.95037137E-06
  0.31984070E-05 -0.11923276E-05 -0.10613361E-05  0.19245316E-06 -0.20682779E-06
 -0.20468290E-07 -0.13551285E-05  0.28494935E-06 -0.72397594E-06 -0.23756354E-05
  0.17569694E-05 -0.59496589E-06  0.70216726E-06 -0.80436488E-06  0.13144692E-05
  0.96765534E-06  0.58202740E-06 -0.77842687E-07 -0.65208684E-06 -0.92544787E-07
  0.20460162E-06 -0.20616352E-06  0.62380004E-06 -0.14075187E-06 -0.12038297E-05
  0.14498486E-05  0.10137301E-05 -0.86568331E-06  0.36407252E-05 -0.47595862E-06
  0.17432574E-05 -0.58751615E-06  0.52353574E-06  0.20800450E-05 -0.11524065E-04
  0.23516266E-04  0.17575827E-04 -0.22892527E-05  0.19461713E-04 -0.16805254E-04
 -0.13549906E-04  0.11796467E-04  0.14046186E-05 -0.60302044E-06  0.38754191E-06
 -0.79367144E-06  0.41212526E-06 -0.60612004E-06  0.14059182E-05  0.46699244E-06
  0.11961095E-06 -0.73585076E-06  0.36993336E-04 -0.91044134E-05  0.36315279E-04
 -0.23308694E-04 -0.20303519E-04  0.92555388E-05 -0.51336788E-05  0.15585562E-04

 -0.71808538E-06 -0.17150664E-05  0.11171398E-05 -0.37772867E-06  0.25010876E-06
 -0.12113934E-05 -0.12166500E-05  0.25646628E-05  0.25599766E-05  0.69913992E-06
  0.27787080E-05  0.38929599E-05 -0.15584851E-05  0.49691577E-05 -0.16017947E-05
  0.41603662E-05  0.95123371E-06  0.35331376E-06 -0.41363255E-04 -0.15286924E-04
  0.33894856E-06 -0.24674760E-04  0.24599099E-04  0.18267992E-06 -0.21255474E-04
 -0.33211809E-04  0.39018105E-05  0.79418982E-06 -0.75474661E-08  0.15085598E-05
 -0.39551116E-06 -0.70646177E-05 -0.17821382E-05  0.24343412E-06 -0.11415194E-05
 -0.43350912E-06  0.65726594E-05  0.16553973E-04  0.13653728E-07  0.80789900E-05
 -0.54121191E-04  0.41762396E-05 -0.28349153E-05  0.60316628E-05 -0.37374779E-04
 -0.26535552E-05  0.18085845E-05 -0.46975873E-06 -0.10787188E-05 -0.79702254E-07
 -0.21130718E-05  0.19933507E-05 -0.54115216E-06  0.23625116E-06  0.20673490E-05
 -0.22464801E-05 -0.17581369E-05 -0.22862076E-05 -0.14922061E-05  0.35262801E-06
 -0.21263179E-05  0.63088650E-06  0.35469316E-05  0.34564071E-07 -0.83039496E-06
  0.14978407E-06 -0.15547430E-05 -0.15552473E-05 -0.10356990E-05 -0.91462772E-06
 -0.81617950E-06 -0.17419220E-05  0.33601729E-06  0.84776845E-05 -0.12156684E-05
 -0.32381687E-05  0.79182802E-05 -0.54625935E-06 -0.48397691E-06 -0.43929172E-06
  0.17321392E-05 -0.22975083E-05 -0.22359144E-05  0.31719935E-06 -0.39267818E-06
 -0.98818303E-06 -0.17292458E-05 -0.15522508E-06 -0.43539839E-06  0.55615356E-06
  0.49325874E-05 -0.44945542E-04  0.45212795E-04 -0.24569615E-05  0.51551151E-05
  0.10771366E-04  0.86398238E-05 -0.66349231E-05  0.49134678E-04 -0.24987780E-05
 -0.32224390E-05 -0.33529087E-05  0.59397065E-06 -0.22540940E-05 -0.21025758E-05
 -0.43111552E-06  0.35383726E-05  0.82202580E-06  0.41697054E-04  0.37839841E-04
 -0.11786270E-04 -0.17970909E-04  0.86893758E-04 -0.17672979E-04  0.29032703E-04
  0.12960255E-04 -0.10657755E-04  0.37040153E-05  0.72805214E-04 -0.21972694E-05
  0.15118173E-04 -0.13922949E-04  0.11312464E-04 -0.13349437E-05 -0.18816338E-05
 -0.17064257E-05  0.18393270E-03  0.15356218E-03 -0.11049080E-03 -0.22506047E-03
 -0.85995918E-04 -0.95458252E-04  0.29692808E-03  0.94455636E-05 -0.12866845E-03
  0.15641060E-05  0.88997511E-06  0.79200703E-05  0.18925832E-05 -0.39595575E-06
 -0.43083358E-05 -0.36489181E-06 -0.41139879E-06 -0.51484591E-05 -0.16322208E-04
  0.30953315E-07  0.37140720E-04  0.59868647E-05 -0.55621390E-04 -0.12781924E-04
 -0.12983110E-04  0.86704694E-05 -0.78754263E-05  0.98909898E-06 -0.62879249E-05
 -0.30424983E-05 -0.39334132E-06  0.58526663E-05 -0.24081983E-05 -0.18555263E-05
 -0.19424746E-05 -0.17531950E-06  0.25085197E-05  0.19360648E-05 -0.19544896E-05
 -0.82684490E-07 -0.91310350E-05  0.23573558E-05 -0.10232820E-05 -0.21419750E-05
 -0.76388662E-06  0.12226398E-05  0.33671691E-05 -0.21550082E-06 -0.26692725E-05
  0.49133633E-05 -0.79913558E-06  0.13437145E-05  0.16411603E-06  0.27423178E-05
  0.28418762E-06 -0.46351925E-05  0.57993181E-06 -0.74581893E-06 -0.55534389E-05
 -0.65332985E-06  0.57397690E-06  0.97305952E-07 -0.31416883E-06 -0.23902236E-05
 -0.24952614E-06  0.19750303E-05  0.27285443E-05  0.39526078E-05 -0.18405604E-05
  0.27078351E-05 -0.29776076E-06 -0.47562484E-05 -0.10900486E-04 -0.59467517E-04
  0.22876751E-04 -0.32952034E-04  0.10715143E-03 -0.12726943E-03  0.96278058E-05
  0.45395643E-04 -0.98791434E-05 -0.13288245E-05 -0.11147345E-05  0.17734881E-06
  0.57822968E-06 -0.56321560E-05 -0.22637889E-06 -0.10500426E-05  0.16128477E-05
 -0.16708920E-06  0.12370710E-04  0.53244736E-05  0.45999500E-04 -0.12949248E-04
  0.17891385E-04 -0.20266097E-04  0.83150610E-05  0.40817389E-05 -0.66888584E-05

  0.58228756E-07  0.48889116E-06  0.37984523E-05 -0.74136959E-06  0.64264432E-06
  0.52147968E-06  0.35946068E-07  0.63483135E-06  0.40983131E-07  0.13397852E-05
 -0.97919837E-06 -0.43707051E-07 -0.57004130E-06  0.20077007E-05 -0.11411055E-05
  0.17197528E-05  0.29160462E-05  0.83202659E-06  0.11256912E-04 -0.19903933E-04
 -0.20124952E-04 -0.11654276E-04 -0.47047857E-04  0.79433798E-04 -0.14994067E-04
  0.14585087E-04  0.12918524E-05  0.20025996E-05 -0.70012621E-06  0.44756731E-05
 -0.78379149E-06  0.17286016E-05  0.65919621E-07  0.62013785E-06 -0.35769168E-06
  0.23936644E-05 -0.17983657E-04 -0.35106177E-04 -0.41829008E-04  0.11211146E-04
 -0.12333845E-04  0.40959082E-04  0.17922205E-04  0.18431809E-04  0.38118310E-04
  0.33296626E-06 -0.10822129E-05 -0.17180262E-05 -0.99518403E-06  0.15600449E-05
  0.27963245E-06 -0.13360644E-05  0.20612185E-05 -0.27321481E-06 -0.15612164E-05
 -0.11591722E-05  0.10537528E-05 -0.47155384E-06 -0.71677066E-06  0.42873128E-05
  0.27541641E-06 -0.53469918E-06 -0.26386974E-05  0.70799127E-06 -0.16315961E-05
  0.13563118E-07  0.17695281E-05 -0.24732984E-05 -0.26120125E-05 -0.42210967E-06
 -0.43620096E-06  0.11223875E-05  0.55900980E-06 -0.23437674E-05 -0.90291443E-06
 -0.20280674E-06  0.75284465E-06 -0.17400003E-05 -0.69122650E-06  0.18998319E-05
 -0.79571591E-06 -0.14486730E-06  0.43952471E-05 -0.46093378E-05 -0.24260052E-05
  0.30512825E-05  0.17686772E-05  0.98145445E-06 -0.61182756E-06  0.10042724E-05
  0.19575737E-04 -0.15396821E-04 -0.22915709E-04 -0.11365404E-05  0.11118116E-05
  0.27091761E-04  0.15886179E-04  0.13260356E-04 -0.50008517E-04 -0.21774406E-05
  0.19112007E-05  0.50591058E-05  0.29837602E-05 -0.32861820E-05  0.16420854E-05
  0.15272632E-05 -0.23455875E-05 -0.67170685E-06 -0.43001733E-05  0.26974561E-04
  0.61108328E-04 -0.65144932E-04 -0.24402092E-04  0.52289927E-04 -0.18990507E-04
 -0.96216542E-05  0.30535480E-04  0.52298688E-05 -0.21972694E-05  0.60745610E-04
 -0.37629159E-05 -0.11873889E-05  0.29210580E-05 -0.34236888E-05 -0.64572148E-05
 -0.82396178E-05 -0.24693016E-04 -0.30321230E-04 -0.64014556E-04 -0.10578975E-04
  0.11810520E-04  0.84522285E-04 -0.80117515E-04 -0.80050589E-04 -0.17699946E-03
  0.46396845E-07  0.41468334E-05  0.16431062E-05  0.14239152E-05 -0.36189074E-05
 -0.25998633E-05  0.49269453E-06  0.30949892E-07 -0.39829781E-05 -0.92980344E-05
 -0.76225470E-05  0.87412041E-05  0.55170471E-05  0.14966764E-04 -0.65313050E-04
 -0.33297903E-05  0.13207814E-04 -0.32973442E-04 -0.10466291E-05  0.17598656E-05
 -0.14545202E-05 -0.39793793E-06 -0.34916735E-05  0.32656018E-05 -0.15740045E-06
 -0.15762479E-05 -0.16352700E-05 -0.93974267E-06  0.14450367E-05 -0.14215665E-06
 -0.52752071E-06  0.11433158E-05  0.37060112E-05 -0.82586342E-06  0.47643456E-06
  0.98937888E-06  0.24037622E-07 -0.12713008E-05 -0.10924822E-07 -0.45204759E-06
  0.58298547E-06  0.39716004E-06  0.30411078E-06 -0.89468371E-06  0.17439430E-05
 -0.82454097E-06 -0.11890968E-06  0.22169570E-05  0.94025608E-07 -0.63574354E-06
  0.14926792E-05  0.16406034E-06 -0.70642654E-06 -0.27532126E-05  0.71926999E-09
 -0.88868653E-06 -0.20511667E-06 -0.19749233E-05 -0.78256696E-06  0.26959848E-05
  0.59306336E-06  0.14476318E-05  0.44622508E-05  0.46193604E-05  0.96309994E-05
 -0.13547537E-04  0.45373897E-05 -0.33460587E-05  0.78037222E-04 -0.67857656E-05
  0.43115054E-05  0.29441134E-04 -0.10836409E-05  0.72755077E-06  0.10617111E-05
 -0.66181031E-06  0.74708126E-06  0.43322078E-07  0.37427952E-07 -0.10312961E-05
  0.45058097E-06 -0.23779440E-04 -0.11370430E-04  0.18473849E-05  0.37952834E-05
  0.43056395E-05 -0.36443463E-04 -0.25321893E-05 -0.14380964E-04 -0.68784982E-05

 -0.20034156E-06  0.22148658E-07  0.74607556E-06 -0.31732071E-05  0.10202969E-05
  0.18980177E-06  0.12879498E-05  0.12646893E-05  0.11511584E-05 -0.93367123E-07
  0.10419473E-05 -0.95937766E-06 -0.35403134E-05  0.43832217E-05 -0.16600316E-05
  0.15630531E-05  0.36556732E-06  0.20988091E-06  0.20736689E-05 -0.84674913E-07
  0.14571925E-05  0.24262697E-05  0.20185768E-04  0.13862600E-04  0.66661581E-05
  0.11991769E-04 -0.88619694E-05  0.14457473E-05 -0.18290234E-06  0.74248567E-06
 -0.16167550E-05  0.59059576E-06 -0.85676503E-06  0.32126296E-06 -0.32811963E-06
 -0.11005458E-05 -0.25199338E-05 -0.14735926E-04 -0.11387386E-04  0.44541825E-05
  0.60074021E-05 -0.26139859E-05  0.18966460E-04  0.97749923E-05 -0.49306903E-05
 -0.10858320E-05  0.68135029E-06  0.44938643E-06 -0.37952613E-05 -0.18269503E-05
  0.20396053E-05 -0.16112532E-05 -0.33047932E-06  0.35677274E-06 -0.77781906E-07
 -0.13127696E-05 -0.21307020E-05 -0.13402749E-05  0.42008462E-07 -0.11825194E-06
 -0.24218380E-06 -0.18325313E-06 -0.42536636E-06 -0.15201318E-05 -0.10630394E-05
 -0.47417485E-06  0.59936176E-06  0.18560658E-05 -0.73000123E-06  0.66333765E-06
 -0.89590328E-06  0.75977911E-06 -0.21215395E-05 -0.29659921E-06 -0.17638742E-05
 -0.24944493E-05  0.39410224E-05  0.22255651E-05 -0.35625017E-06 -0.11817099E-05
  0.72831479E-06  0.16817777E-05  0.17269396E-06 -0.24165551E-06 -0.25176539E-05
  0.15711482E-05 -0.74453166E-07  0.11878295E-06  0.13135106E-05 -0.20858173E-05
 -0.48863505E-05 -0.13702725E-04 -0.71673194E-05  0.46151980E-04 -0.18245696E-04
 -0.36895694E-04 -0.64705588E-07  0.17375901E-04  0.16379900E-04 -0.26589017E-05
 -0.42480114E-05  0.21179580E-05 -0.28192002E-05  0.58488564E-06  0.40538459E-06
 -0.13714922E-05 -0.56669028E-05 -0.78207340E-06  0.32526863E-04  0.56348508E-06
 -0.73089085E-05 -0.43620273E-04  0.19305949E-04  0.16890364E-05 -0.15185874E-04
 -0.46388858E-04 -0.96112883E-05 -0.53030748E-05  0.15118173E-04 -0.37629159E-05
  0.68679138E-04 -0.32131217E-04 -0.16737114E-04  0.47177745E-05  0.25685514E-05
  0.14757953E-05  0.17235056E-03 -0.13729049E-05 -0.40687756E-05 -0.37476913E-04
 -0.20766509E-03 -0.27484404E-04  0.27806583E-03  0.50411007E-06 -0.58901087E-05
  0.18621680E-05 -0.92110657E-06 -0.35653645E-05 -0.59129257E-05  0.11856285E-05
  0.53767596E-05 -0.19078670E-06 -0.28686967E-05  0.36130560E-05  0.86813443E-05
 -0.39871377E-04  0.10419915E-04  0.11054858E-04 -0.33754456E-05  0.14021986E-05
 -0.28844015E-04  0.22140146E-04  0.18735131E-04  0.41481657E-06 -0.28102629E-05
 -0.71140687E-06 -0.55271364E-06  0.27260506E-06  0.17777237E-05  0.15470598E-05
  0.11109145E-05 -0.84388677E-06  0.28721580E-05  0.30507948E-06  0.96161649E-07
  0.24887654E-05 -0.67818142E-06  0.26056972E-06  0.51927458E-06 -0.35480040E-06
 -0.16839302E-05 -0.24728419E-05  0.13077880E-05 -0.47615784E-06 -0.67901763E-05
  0.68037772E-05  0.51084268E-06 -0.37961997E-06 -0.94264510E-06  0.82951549E-06
  0.31441815E-06 -0.10397310E-05 -0.13813730E-05 -0.14674307E-05 -0.99811942E-06
  0.42961753E-06 -0.29359918E-06  0.14930155E-05  0.67308658E-06  0.10483644E-05
  0.34781471E-06  0.19209223E-05  0.57820173E-05  0.56439181E-06  0.54616607E-06
  0.27273785E-05  0.19695435E-05  0.21335728E-06  0.35543607E-05 -0.14790288E-04
  0.83063301E-05 -0.37560251E-04  0.28987241E-04  0.63437292E-04  0.16542874E-04
  0.13364646E-04  0.82335344E-05 -0.47442497E-06 -0.55160394E-06  0.10239846E-06
  0.29133200E-05 -0.14570267E-05 -0.61598398E-06  0.91442279E-06 -0.73154932E-07
 -0.90316609E-06  0.23040320E-05  0.16252017E-04 -0.26080847E-05  0.34091520E-04
  0.19832072E-04 -0.17262930E-04 -0.60884247E-05  0.12883609E-04 -0.32270358E-04

 -0.37940454E-07 -0.53660283E-06  0.76913683E-06  0.25418466E-05 -0.75603045E-05
  0.62613686E-06 -0.13535628E-05 -0.60316580E-06 -0.80965576E-06 -0.13419313E-05
  0.71895905E-05  0.17727248E-05  0.19418737E-05 -0.81351767E-05  0.30232534E-05
 -0.94346529E-06 -0.82941038E-06 -0.35396652E-05  0.40805564E-04  0.42155145E-04
  0.22496535E-04  0.16306136E-04 -0.11059040E-03  0.21101087E-05 -0.10184905E-03
 -0.83147478E-05  0.57629802E-05 -0.24419424E-05 -0.10621703E-05 -0.55093958E-06
  0.89177132E-06 -0.22844924E-05  0.20986402E-05 -0.18239364E-05  0.62422090E-06
  0.12432842E-05  0.17199320E-04  0.28510509E-04  0.33699746E-05  0.11806743E-06
  0.16523205E-04 -0.28084817E-06 -0.30650830E-06  0.28591278E-05  0.93661408E-05
  0.13485740E-05  0.10565768E-05 -0.28874232E-05  0.23810579E-05  0.33249208E-05
 -0.13666439E-05  0.53260512E-06  0.29776425E-07 -0.40409823E-06  0.31489418E-06
  0.29762807E-05  0.16760409E-06  0.27878439E-06  0.97803384E-06  0.53935203E-06
 -0.16869878E-05  0.10519031E-05  0.11858066E-05  0.11892230E-05 -0.94437323E-06
  0.24408985E-07  0.74804412E-06 -0.15051471E-05  0.21885344E-05 -0.62436021E-07
 -0.78296570E-06 -0.25787571E-06  0.63964591E-06  0.50675179E-05  0.30353082E-06
  0.26785806E-05 -0.69498059E-05  0.85139048E-06 -0.87839249E-06  0.31622377E-06
 -0.26812448E-05 -0.14105828E-06  0.10504461E-05 -0.62445290E-06  0.22222014E-05
 -0.72099644E-05  0.23413606E-05  0.79250356E-06 -0.10381208E-05 -0.76943317E-06
  0.22789233E-04  0.19803408E-04 -0.51083681E-05 -0.41362161E-04  0.95802932E-04
  0.31378173E-04  0.20746505E-05  0.43084604E-05 -0.19238080E-04  0.14220411E-05
  0.58599968E-05  0.41689089E-06  0.74719918E-06 -0.37166200E-05  0.10268347E-04
  0.20925168E-05 -0.90546029E-06 -0.79313740E-05 -0.43644291E-04 -0.32486231E-04
  0.64261015E-04 -0.41854549E-04  0.37343103E-04  0.54306165E-04 -0.13916194E-04
  0.30649918E-04  0.25535016E-04  0.12243546E-05 -0.13922949E-04 -0.11873889E-05
 -0.32131217E-04  0.88477076E-04 -0.19867106E-04 -0.60685691E-07  0.23839548E-05
  0.36140195E-05 -0.17150528E-03 -0.37440050E-04  0.83607909E-04  0.23458942E-04
  0.32548515E-03  0.50570156E-04 -0.15782020E-03  0.20091917E-04  0.63365981E-04
 -0.23840522E-05 -0.19531460E-05  0.27322991E-05  0.57298984E-05  0.86119139E-05
 -0.95676433E-05  0.17836593E-05  0.17823710E-05  0.20958347E-05  0.19672435E-04
  0.61910165E-04 -0.25143743E-04  0.70616373E-05 -0.72180780E-04 -0.10430667E-04
  0.96954779E-05 -0.21311763E-04  0.10928593E-04  0.16711091E-05  0.52754494E-05
 -0.21945290E-05 -0.10126438E-05  0.12810661E-05 -0.68582357E-06  0.18254131E-05
 -0.10518922E-05  0.27382562E-05 -0.87513404E-07 -0.11651246E-05 -0.62834317E-06
  0.15891930E-05 -0.48617817E-06 -0.61637360E-06 -0.19491808E-05  0.94268537E-06
  0.22907707E-05  0.19015156E-05 -0.33737562E-05  0.20999649E-05  0.46487369E-05
 -0.10435106E-04  0.32222863E-05  0.12106686E-05  0.14128007E-05 -0.29744945E-06
 -0.13554370E-05 -0.12624255E-05  0.62565966E-06  0.99561295E-06 -0.95685389E-07
 -0.10663774E-06 -0.11810691E-05 -0.52942034E-06  0.43150240E-06 -0.17484536E-05
 -0.43915536E-05 -0.19492006E-05 -0.15104444E-05 -0.48639218E-05  0.28590664E-05
 -0.53179164E-05 -0.15913061E-05  0.75262412E-06  0.22991206E-04 -0.44175498E-05
 -0.59140891E-04  0.50103665E-05 -0.38594976E-04 -0.35116673E-04 -0.25647010E-04
 -0.33157532E-04 -0.21182574E-04 -0.37657104E-06  0.22871940E-06 -0.67232734E-07
 -0.11608809E-05  0.57220519E-05  0.10605829E-05 -0.15968316E-05 -0.29020859E-06
  0.26758998E-05 -0.14928516E-04  0.75129843E-05 -0.12667612E-04 -0.21340991E-04
 -0.46565708E-04  0.27440848E-04 -0.11208039E-05 -0.53175726E-05  0.25425742E-04

 -0.19365141E-05 -0.11218813E-05 -0.69837566E-06 -0.11120206E-05  0.40951359E-05
  0.21475915E-05 -0.20397735E-06 -0.42126130E-05 -0.13034999E-05  0.29380298E-06
  0.12399003E-05  0.63001799E-06 -0.22524680E-05  0.37983036E-05  0.13382176E-05
 -0.11431431E-05 -0.27616225E-05  0.48189808E-06  0.36718025E-04  0.43504973E-04
 -0.60038193E-06  0.66744642E-04  0.21346326E-05 -0.52311468E-04 -0.10313618E-06
  0.67992001E-05 -0.14394137E-05  0.40294693E-06 -0.16753534E-05 -0.19056462E-05
  0.16434415E-05 -0.26719243E-05  0.33470282E-05 -0.87692208E-06  0.80336087E-06
  0.17015372E-05 -0.78916562E-05  0.36433024E-06  0.16720278E-04  0.30248196E-05
 -0.12350330E-04  0.60292604E-05 -0.83177288E-05 -0.24418791E-04  0.32983474E-04
  0.20549559E-05  0.77403957E-06 -0.15062241E-06 -0.42299701E-06  0.10205559E-05
 -0.10752675E-05  0.20505069E-06  0.74970775E-06 -0.20354745E-05 -0.19554005E-05
  0.13783865E-05  0.11504231E-05  0.18529154E-06  0.44825405E-06  0.19166288E-05
 -0.10349868E-05  0.18523849E-06 -0.39241599E-07 -0.47937038E-06  0.12724931E-05
  0.26339625E-06  0.78966417E-06  0.32631208E-06 -0.21255988E-07  0.41915710E-06
  0.19678949E-05  0.34141022E-06  0.19646609E-06 -0.80692523E-06  0.24297834E-05
  0.33160947E-05  0.75728593E-06 -0.82711896E-05  0.94466269E-06 -0.10929594E-06
  0.23131532E-06 -0.22547668E-06  0.12614069E-05  0.71929268E-06 -0.38226402E-06
  0.45126882E-06  0.11814608E-05 -0.53389108E-06  0.27401874E-07  0.80267475E-05
 -0.13717004E-04  0.25251985E-04  0.12577405E-04 -0.79261972E-05 -0.11773414E-04
 -0.12699747E-04 -0.93503725E-05 -0.29986458E-06  0.45959291E-05  0.23605966E-05
 -0.51908731E-05 -0.94232233E-05  0.15225294E-05  0.69999077E-05 -0.16984997E-04
 -0.20662573E-05  0.81004749E-05  0.15677850E-04  0.35394750E-04 -0.30998602E-04
 -0.13084019E-03  0.14279134E-03 -0.34528988E-04 -0.11470485E-05  0.22899944E-04
  0.25575725E-04 -0.50212508E-04  0.10762387E-04  0.11312464E-04  0.29210580E-05
 -0.16737114E-04 -0.19867106E-04  0.82393463E-04 -0.37619727E-05 -0.40175520E-05
  0.13488474E-06  0.18971340E-04  0.19156414E-03 -0.72211488E-04 -0.11376768E-03
  0.10369898E-03 -0.11477902E-03  0.70573058E-04 -0.21601056E-04 -0.11308709E-03
 -0.42145427E-06  0.47184141E-05  0.82312791E-05  0.11580744E-05 -0.86668666E-05
  0.32448200E-05 -0.21724246E-05  0.10258488E-05 -0.14371201E-04 -0.31991390E-04
  0.57958378E-05  0.48955356E-04 -0.10012550E-04  0.84029409E-04 -0.18891845E-04
 -0.37218358E-05  0.38007469E-04 -0.38244571E-05 -0.68342606E-06 -0.18829081E-05
  0.58232278E-05  0.21975568E-05 -0.21521666E-05 -0.24572300E-05 -0.12485852E-05
 -0.40927982E-06 -0.21579869E-05 -0.99348401E-06 -0.41892214E-06 -0.29026096E-05
 -0.13165257E-05  0.43425147E-05  0.12835632E-05  0.16388031E-05 -0.14172619E-05
  0.54612723E-05  0.73801557E-06 -0.49268153E-06  0.17861462E-05  0.21494409E-05
  0.14616414E-05 -0.21933572E-05  0.75239890E-06 -0.30317743E-06  0.17214878E-05
 -0.64930060E-06  0.12454890E-05 -0.18979662E-06  0.90427293E-06 -0.73224700E-06
 -0.62406460E-06  0.36997905E-06  0.46522594E-06 -0.19580477E-05  0.73189348E-06
  0.25306138E-05 -0.17646952E-05  0.13096686E-05  0.26714854E-05 -0.61288623E-05
  0.17440371E-05 -0.93627992E-06  0.19751341E-05 -0.14311941E-05  0.14209543E-05
  0.34350314E-04  0.15436478E-04  0.23073880E-05  0.13330898E-03 -0.81057168E-05
 -0.26742765E-04  0.28072159E-04  0.50208073E-06 -0.43668456E-06  0.23732474E-05
  0.21936006E-06 -0.66136472E-06  0.26451352E-06  0.92479475E-06  0.11586557E-05
  0.18462680E-05  0.26528091E-04  0.21712175E-04 -0.41661884E-05 -0.90399859E-06
  0.24979745E-05  0.15736836E-04  0.41686058E-05  0.16417850E-05  0.10477643E-05

  0.43502006E-06 -0.67548270E-06  0.16835743E-05  0.72787194E-06 -0.19778829E-05
 -0.33586404E-06 -0.30543576E-06  0.13843177E-05  0.28463381E-07  0.80813211E-06
  0.16554331E-05  0.24391187E-05 -0.19317320E-06 -0.30345085E-05  0.18601224E-05
  0.22477816E-06 -0.90390712E-06 -0.23854351E-05  0.85014557E-05  0.18433190E-04
  0.27166103E-05  0.46667241E-05 -0.40504658E-04  0.63541158E-05 -0.10183245E-04
  0.48386654E-06  0.13211068E-04 -0.21543110E-05 -0.11005533E-05  0.15942287E-05
 -0.83156860E-06  0.29163889E-05 -0.64531027E-06 -0.39514151E-06  0.38560668E-06
  0.17401476E-05 -0.24882070E-05  0.30995865E-05 -0.47970820E-05 -0.12584676E-04
  0.20866955E-04  0.22274005E-04  0.20701304E-04  0.82439206E-05 -0.49784402E-05
 -0.51940441E-06 -0.15695387E-05 -0.10167302E-05  0.15537482E-06 -0.20265968E-05
  0.12066969E-05 -0.10170551E-05  0.26714991E-06 -0.45940619E-06 -0.55820430E-06
 -0.20901947E-06 -0.95360308E-07  0.11728274E-05  0.77737461E-06 -0.14729367E-05
 -0.17709477E-05  0.32445806E-06  0.21697059E-06  0.74223121E-06 -0.11580055E-06
  0.16182382E-06  0.43044256E-06  0.76822614E-06  0.28119684E-06 -0.54119775E-06
 -0.61079437E-06 -0.29635845E-06  0.10121240E-05 -0.53183975E-06  0.17097389E-05
  0.12289982E-06 -0.92629640E-06  0.15345153E-07 -0.10535840E-05 -0.57157681E-06
  0.88662559E-06  0.13496636E-05  0.14273334E-05  0.41429045E-06 -0.66085498E-06
  0.84126700E-06  0.50779515E-06 -0.28059361E-05  0.51458698E-06 -0.15605648E-05
 -0.23177485E-05  0.11801130E-04  0.15033540E-05  0.62335718E-05 -0.11572534E-04
  0.19949465E-04  0.81189921E-05 -0.62606515E-05 -0.18005885E-04 -0.24888440E-05
  0.14044157E-06 -0.12717836E-05 -0.37211409E-06  0.40644172E-05 -0.22685356E-05
  0.78465091E-06 -0.11461619E-05 -0.28910882E-05 -0.10189837E-04 -0.65581389E-06
 -0.70922454E-05 -0.53708541E-05  0.11847875E-04 -0.38457736E-04  0.83410563E-05
  0.41699857E-04 -0.23205927E-04 -0.11114002E-04 -0.13349437E-05 -0.34236888E-05
  0.47177745E-05 -0.60685691E-07 -0.37619727E-05  0.36411221E-04  0.27784005E-06
  0.19907612E-05  0.92833299E-04 -0.14787564E-03  0.51459112E-04  0.19995266E-03
 -0.99483442E-04  0.25729497E-04  0.75173927E-04 -0.44002801E-04  0.64097461E-04
 -0.17170947E-05  0.33522483E-05 -0.25407617E-05  0.11519808E-05 -0.43752477E-07
  0.99114820E-06 -0.17030406E-06  0.41168104E-05 -0.64224314E-06  0.97708669E-05
  0.47150154E-05 -0.18555498E-04 -0.12819676E-05 -0.25735018E-04  0.56400968E-05
 -0.16797573E-04  0.86466853E-05  0.77408533E-05  0.10189902E-05 -0.78096535E-06
 -0.21393575E-05 -0.81593358E-06  0.33963051E-05 -0.61343051E-06 -0.38614790E-06
 -0.73751979E-06 -0.22508288E-06  0.15452453E-05 -0.11976848E-05 -0.51546121E-06
 -0.30605186E-06 -0.22462212E-05  0.20755127E-05  0.15107540E-05 -0.42890621E-08
 -0.74187222E-06  0.72949410E-06 -0.50805837E-06  0.57567199E-06  0.46535350E-07
  0.25840083E-07  0.21940696E-06 -0.45561552E-06 -0.20025196E-06  0.87794910E-06
 -0.71750162E-07 -0.15973607E-06  0.63709545E-06  0.12568728E-05 -0.16761778E-06
  0.46484237E-06 -0.13751171E-05 -0.52274829E-06  0.86261778E-06  0.40265584E-06
 -0.29604219E-06  0.10944374E-05 -0.10273985E-05 -0.95753001E-06  0.18587353E-06
  0.19625434E-06 -0.69188940E-06  0.80862891E-06  0.24047930E-05  0.39936519E-04
 -0.16902922E-04 -0.29628327E-05 -0.23822063E-04  0.65600925E-04  0.66977637E-05
  0.56671091E-05  0.16085681E-04 -0.43806237E-07  0.11954372E-07  0.64830820E-07
  0.43941618E-06  0.12426756E-05  0.23950743E-06  0.12657608E-05  0.39327692E-06
  0.19614089E-07  0.73753151E-06 -0.13496524E-04 -0.13179572E-05 -0.12689586E-04
  0.92413445E-06  0.59505514E-05  0.11148405E-05 -0.13384761E-05 -0.11552943E-04

  0.51957326E-06 -0.80469822E-06 -0.19827571E-05  0.50048272E-07  0.16906897E-06
 -0.22507771E-05 -0.17726920E-06 -0.25071501E-05 -0.17586959E-06 -0.97222582E-06
  0.10136305E-06 -0.20747431E-05  0.28086117E-06 -0.86310899E-06 -0.23101669E-05
 -0.24976778E-05 -0.90495380E-06 -0.58715779E-06  0.66017656E-05 -0.51411776E-06
  0.13608398E-04  0.46181177E-05  0.13365341E-04  0.90092429E-06  0.77137143E-05
 -0.16690459E-04 -0.10487458E-04  0.76109129E-06  0.33015920E-06 -0.32391908E-06
 -0.32044757E-07  0.20031676E-05  0.13272664E-05  0.20553658E-05 -0.87904305E-06
 -0.12527140E-05 -0.20189241E-05 -0.10031757E-05 -0.26955946E-04  0.87373840E-05
  0.33383765E-04 -0.44372099E-04  0.50914862E-05 -0.82893286E-05  0.16047306E-04
 -0.92192859E-06 -0.76166772E-06  0.37912515E-05 -0.53659344E-06  0.24079795E-06
  0.13790163E-05 -0.29369024E-06 -0.19703436E-05 -0.73935762E-06 -0.62297115E-06
  0.56645403E-06 -0.73380926E-06 -0.21876526E-06 -0.19204829E-05  0.14094475E-05
 -0.13527448E-06 -0.74776487E-06 -0.16503928E-05 -0.33277577E-06 -0.72989829E-06
 -0.81259656E-06 -0.16629487E-05  0.88751829E-06  0.68729869E-06  0.76157970E-06
  0.10359303E-05  0.19171947E-05 -0.11912501E-05 -0.93319324E-06 -0.13519523E-05
 -0.57468302E-06  0.41808522E-06 -0.29221848E-06  0.22353059E-06 -0.14687913E-05
 -0.53307740E-06  0.15219655E-05  0.93957263E-06  0.28851057E-05  0.25284314E-05
  0.47152408E-06 -0.72584593E-06  0.15833472E-05 -0.11621273E-05 -0.21048183E-05
 -0.87614211E-05 -0.14541538E-04  0.43012407E-05  0.24291086E-04 -0.19586843E-04
 -0.10571865E-05 -0.25097300E-06 -0.49569269E-05 -0.13191524E-04  0.21614668E-06
 -0.16008932E-05  0.33051680E-05 -0.49695776E-05 -0.31419653E-05  0.82223021E-05
 -0.72567670E-06 -0.18545352E-05 -0.50197196E-05 -0.42567977E-05 -0.61838599E-06
  0.25428816E-04 -0.39293028E-04 -0.27771239E-04  0.86250936E-04  0.72676951E-05
 -0.22354130E-05  0.53231946E-05  0.23991608E-05 -0.18816338E-05 -0.64572148E-05
  0.25685514E-05  0.23839548E-05 -0.40175520E-05  0.27784005E-06  0.35618689E-04
  0.73511495E-05 -0.24922438E-04  0.74741532E-04  0.93934863E-04 -0.78476055E-05
  0.12263704E-03 -0.77061037E-04 -0.40340228E-04 -0.15583462E-04  0.19276286E-03
 -0.21743815E-05 -0.11498439E-05  0.16058289E-05 -0.26541924E-05  0.20898322E-05
  0.10181430E-05  0.22505292E-05 -0.13133365E-05 -0.55597818E-06 -0.12528984E-04
 -0.16697192E-04  0.20124610E-04  0.18361710E-04 -0.28205823E-05  0.27454910E-05
  0.10410282E-04 -0.72409271E-06 -0.17903191E-04  0.59849008E-06 -0.14136119E-05
 -0.91238826E-06  0.79623094E-06 -0.21025565E-05  0.19950965E-05 -0.82336583E-06
  0.62899940E-07  0.80734476E-06 -0.10633751E-05  0.11889508E-05  0.54840079E-07
 -0.66181336E-06  0.11682400E-05 -0.72566162E-06  0.13252646E-05  0.61108966E-07
  0.38327168E-06  0.60132683E-06  0.48501993E-06  0.11486912E-05 -0.89490673E-06
  0.15369183E-05  0.71187747E-07  0.25930288E-06 -0.15549924E-05  0.62676361E-06
  0.87699961E-06 -0.59772139E-06  0.43682306E-06  0.35244768E-06 -0.15061782E-06
 -0.54856949E-06 -0.57633287E-06 -0.14459166E-05  0.27146540E-06  0.35082219E-06
 -0.92577341E-06  0.20391647E-05  0.26570809E-05 -0.33172687E-05 -0.11715108E-05
  0.44580313E-06 -0.12999061E-07 -0.51035821E-06  0.19594763E-05  0.12197128E-04
 -0.17121019E-04 -0.24596040E-04 -0.23016761E-04  0.79020040E-04 -0.42102936E-06
  0.12617610E-04  0.26539415E-04  0.10084820E-05 -0.88265616E-06 -0.30163565E-06
  0.18527660E-06  0.38295672E-06  0.32078286E-06  0.12740287E-05  0.51747132E-06
 -0.29511230E-06  0.97185427E-05  0.10587526E-04  0.46160083E-05  0.58548930E-04
 -0.17245219E-04 -0.10271178E-04  0.17337015E-04  0.51441814E-05 -0.42721825E-05

 -0.25997686E-06 -0.34285644E-06  0.14366201E-05  0.15110561E-05 -0.31178321E-05
  0.88816667E-06  0.83725773E-06 -0.10188179E-06 -0.20118841E-05  0.79958514E-06
  0.15111407E-05 -0.27524534E-05 -0.45901905E-06 -0.44799879E-05 -0.88165379E-07
 -0.35501481E-05  0.41054641E-06 -0.13535543E-05  0.58022426E-05  0.43891785E-05
 -0.87238169E-05 -0.66758573E-04  0.44180852E-04 -0.12877144E-04  0.68882077E-05
 -0.24495655E-04  0.11302424E-04  0.85809215E-06  0.48329000E-06 -0.21947201E-05
 -0.10569127E-05  0.31995957E-05  0.44236575E-06  0.37803549E-05 -0.20874423E-05
 -0.68061073E-06  0.69761960E-05  0.69450617E-06 -0.25514221E-04  0.17179120E-04
  0.12827123E-04  0.96847140E-05  0.46035674E-05  0.27023659E-04  0.22255133E-04
 -0.28690752E-06  0.63482172E-06  0.17079965E-05  0.79607950E-06  0.21969549E-06
  0.18493528E-06 -0.56890688E-06  0.16372956E-05 -0.49537381E-06  0.19197351E-06
  0.50115986E-06  0.12479474E-05  0.39019557E-06 -0.11691174E-05  0.14049259E-06
  0.11329549E-05  0.89017494E-07 -0.22358685E-05 -0.51161715E-06 -0.19343638E-05
  0.48312791E-06 -0.84839108E-06  0.29438992E-05  0.42280896E-06  0.76285080E-06
  0.13087435E-05  0.45249211E-06  0.75560288E-06  0.79017791E-06  0.14580022E-05
 -0.62620457E-06  0.11622320E-05 -0.26662238E-05  0.26217815E-06 -0.10174529E-05
 -0.14689803E-05 -0.32234628E-05  0.44493842E-05  0.49954573E-05  0.19583546E-05
  0.80655800E-06 -0.69884047E-06  0.47030148E-06 -0.14576785E-07 -0.55007870E-05
 -0.22827531E-05  0.28143867E-05 -0.13935117E-06 -0.19962714E-05 -0.42181036E-04
  0.26078175E-04  0.63172022E-05 -0.64422394E-05 -0.14881318E-04  0.16759008E-05
 -0.46875482E-06  0.34118829E-05 -0.23827748E-05 -0.22472977E-05  0.79890023E-05
 -0.19508160E-05 -0.54111736E-05  0.24338719E-05 -0.32641316E-04  0.11493424E-04
  0.18605187E-04 -0.19811526E-04  0.27585500E-04  0.67749617E-04 -0.37047421E-04
 -0.22977701E-04  0.25072919E-04 -0.35144118E-05 -0.17064257E-05 -0.82396178E-05
  0.14757953E-05  0.36140195E-05  0.13488474E-06  0.19907612E-05  0.73511495E-05
  0.63152095E-04  0.25052538E-04  0.14087692E-04  0.18462737E-03 -0.26893242E-04
  0.93264458E-04 -0.12964102E-03  0.38536057E-04  0.13772593E-03  0.17451993E-03
 -0.15592105E-05  0.16097899E-05  0.66554949E-05  0.40778814E-05  0.10222840E-05
 -0.70850665E-05 -0.17676938E-05 -0.11277635E-05 -0.11754600E-04  0.31842272E-05
  0.11723546E-04  0.11218452E-04  0.12255470E-04  0.98552623E-04 -0.49139560E-04
  0.18504767E-04  0.89771302E-05 -0.20498342E-04 -0.11162271E-05  0.20601151E-05
  0.34260335E-05 -0.11168260E-05 -0.50516710E-05  0.52703319E-05 -0.57062694E-06
 -0.27794713E-06 -0.24060195E-05  0.22728187E-06  0.39057152E-06  0.21604535E-05
  0.45606380E-06 -0.10207233E-05 -0.27126547E-05 -0.89189369E-06  0.79425257E-06
  0.77482886E-07  0.21269785E-06  0.14206064E-05  0.14386505E-05 -0.47625847E-06
 -0.81295808E-07  0.22367250E-06  0.77456850E-06 -0.64050439E-06 -0.20489244E-05
  0.30648300E-06 -0.19507795E-05 -0.14659867E-05 -0.16028464E-05  0.10215363E-05
  0.30082065E-05  0.49868204E-06  0.20812592E-05 -0.14922436E-05  0.42081029E-06
 -0.36195312E-06  0.25986157E-05  0.12206819E-05 -0.61499725E-05  0.56350119E-06
 -0.17317703E-05  0.82717675E-07 -0.27830135E-06  0.67882384E-05  0.50633423E-05
 -0.34512521E-04 -0.51452068E-05 -0.84516281E-04  0.12448323E-03  0.29585924E-04
 -0.35503179E-05  0.97074959E-05 -0.48412047E-06 -0.22045729E-05 -0.17711896E-05
 -0.86532072E-06  0.37818603E-05 -0.35486075E-06  0.64123353E-06 -0.32606111E-06
 -0.15458833E-06  0.20464944E-05 -0.41657455E-05 -0.35505523E-04  0.45128727E-04
  0.13633138E-04 -0.66905004E-04 -0.21353929E-05 -0.70985923E-05 -0.36121063E-04

  0.70045223E-05  0.83948233E-06  0.40052778E-05 -0.10714776E-04 -0.28027246E-04
 -0.19442262E-05  0.12548205E-04  0.22353197E-04  0.56344926E-05 -0.18448464E-04
  0.14362897E-04  0.20146461E-04 -0.21210497E-04  0.16009288E-04  0.10121158E-05
  0.19916157E-04 -0.37504612E-05 -0.17127890E-04 -0.44148712E-04 -0.58790447E-04
  0.20657995E-03 -0.72219780E-03  0.52121044E-03  0.58311426E-04  0.52940356E-03
 -0.15742570E-03 -0.97454392E-04  0.38409439E-05  0.17252777E-05 -0.23083347E-05
 -0.59369150E-07 -0.13463426E-04 -0.87434814E-06  0.79363333E-05 -0.10041055E-04
 -0.63023242E-05 -0.90828645E-04 -0.21556116E-03 -0.11322052E-03  0.10371025E-03
 -0.30694429E-03  0.16854780E-03  0.14027878E-03  0.21603797E-03 -0.11547668E-04
 -0.26300313E-04  0.23254573E-04  0.19903376E-04  0.98882048E-06 -0.13293954E-04
  0.55655867E-05  0.13550149E-05  0.57273929E-05 -0.52499234E-05 -0.49180050E-06
 -0.23697060E-04 -0.44016153E-04  0.30361171E-05 -0.15473612E-05 -0.51305719E-05
  0.84785209E-08 -0.95501958E-05  0.15069633E-04 -0.33230549E-05 -0.10290053E-04
  0.11505120E-04  0.24210446E-04  0.49103326E-05 -0.29071145E-04  0.93813584E-06
  0.51562092E-05 -0.85223954E-05 -0.65623010E-05  0.26274604E-04  0.20801533E-04
 -0.36146657E-04  0.87657387E-05  0.13781430E-04 -0.33225882E-05 -0.19433051E-04
  0.94974443E-05 -0.66618086E-05 -0.33222062E-05  0.36177426E-05 -0.91361925E-05
  0.19038511E-04 -0.61352566E-05 -0.34714115E-05 -0.60974344E-05 -0.33620287E-05
 -0.16353847E-03  0.25930913E-03 -0.95300454E-04 -0.21742254E-04  0.35299177E-03
  0.41518988E-04 -0.18995281E-04 -0.27975476E-05  0.17659534E-04 -0.17164683E-04
  0.15364529E-04 -0.26446932E-05  0.93212752E-05  0.14484880E-04 -0.21144532E-04
 -0.16275348E-04  0.22239820E-05 -0.64244668E-05  0.60845271E-03  0.12402504E-03
 -0.13090463E-03 -0.90688246E-03  0.44350446E-03  0.52968650E-03 -0.30713274E-03
 -0.22602645E-04  0.28809181E-03 -0.86876530E-04  0.18393270E-03 -0.24693016E-04
  0.17235056E-03 -0.17150528E-03  0.18971340E-04  0.92833299E-04 -0.24922438E-04
  0.25052538E-04  0.42774041E-02 -0.15521699E-02 -0.68986645E-03  0.11785963E-03
 -0.16335632E-02 -0.37794816E-04  0.17028395E-02 -0.85005577E-04 -0.16635932E-03
  0.69303172E-05  0.14672967E-04 -0.21198747E-04 -0.95023437E-05 -0.61468740E-05
  0.11351266E-04 -0.17090638E-04  0.36760258E-05 -0.17317921E-04  0.12090550E-03
 -0.12558510E-03 -0.61355715E-04 -0.11330862E-03 -0.65501960E-04  0.89490263E-04
 -0.17180654E-03 -0.77042042E-05 -0.40193796E-04  0.15171036E-04 -0.65076001E-05
 -0.22448347E-04  0.21989990E-06  0.18189288E-04 -0.58184070E-05  0.11318610E-04
  0.14282127E-04 -0.89221834E-05  0.51929645E-05 -0.17479006E-04 -0.19590658E-04
 -0.20386512E-04 -0.19595687E-04  0.21694176E-04 -0.44422457E-05 -0.84955642E-05
 -0.48764663E-05  0.19746988E-04  0.81702802E-05  0.50675868E-05 -0.76355425E-05
  0.49710086E-05 -0.19783182E-04  0.55234028E-05 -0.64356867E-05 -0.38366221E-05
  0.33467016E-05  0.19756417E-05 -0.83887182E-05 -0.10425880E-04 -0.31111222E-05
  0.17767640E-05 -0.22923226E-05  0.29911652E-05  0.12039934E-04 -0.13538927E-04
  0.20622587E-04  0.17909985E-04  0.89065312E-05 -0.16363139E-05 -0.13966597E-04
  0.26236681E-04  0.50394152E-05 -0.53019593E-05 -0.48634523E-03  0.14886854E-03
  0.41742879E-03 -0.48755768E-03  0.32415609E-03  0.14607633E-04  0.21482144E-03
  0.31051554E-03 -0.78662356E-04 -0.17897633E-04  0.23100506E-04 -0.54635436E-05
  0.13978742E-04 -0.27800668E-04 -0.10273017E-05  0.56463326E-05 -0.54419119E-05
  0.57009609E-05  0.23690792E-03 -0.30697969E-04 -0.39154111E-03 -0.59415180E-03
  0.43211865E-03  0.19663961E-03  0.83374341E-05 -0.78003688E-04 -0.16113796E-03

 -0.35579473E-04 -0.64195374E-05 -0.39706932E-04 -0.27991533E-04  0.96934551E-04
  0.91568071E-05 -0.11677709E-04 -0.17860574E-04  0.24967086E-04  0.73618840E-05
 -0.26050540E-04  0.18025504E-04 -0.55943578E-05 -0.20485007E-04  0.35244785E-05
 -0.20385343E-05  0.33116154E-05  0.23507182E-04 -0.14609291E-03  0.24020779E-03
 -0.24445072E-03 -0.38813708E-03  0.51357441E-03 -0.41968448E-04  0.97231593E-04
 -0.88977980E-05 -0.65679284E-04  0.15486144E-04  0.93251047E-05  0.41917380E-05
 -0.22072672E-04  0.83995870E-06 -0.17579628E-04  0.94642000E-05 -0.11726246E-04
  0.57150024E-05  0.84268342E-05 -0.64820066E-05  0.15766908E-03  0.52349860E-04
 -0.10762274E-02  0.16536917E-03 -0.45764756E-03 -0.41091860E-04 -0.47874000E-03
  0.12332482E-05 -0.58719216E-04  0.23726446E-04 -0.32911815E-04  0.21599862E-04
  0.11962675E-04  0.25558143E-04 -0.38893534E-05  0.17118739E-04  0.20978570E-04
  0.38085730E-04  0.33634727E-04 -0.29230823E-04 -0.26948248E-04  0.27047348E-04
 -0.15067638E-04 -0.56485534E-05  0.44610567E-05 -0.40372168E-05  0.22183398E-04
 -0.73926855E-05 -0.24773300E-04 -0.96720906E-05  0.16785098E-04  0.90480888E-05
  0.27994414E-04  0.21056333E-04 -0.36903233E-05 -0.12927905E-06 -0.28187826E-04
  0.79884930E-05  0.26581868E-04 -0.30938951E-04  0.85484882E-05 -0.85489461E-05
 -0.26500954E-04 -0.34715620E-04 -0.78565369E-05 -0.23177544E-05  0.21401528E-06
 -0.18054717E-04  0.92177053E-06  0.82437883E-05  0.66682739E-05  0.15910241E-04
 -0.85044632E-04 -0.75903650E-03  0.16979248E-03  0.13689935E-03 -0.11391917E-02
 -0.31687887E-04  0.16724230E-03 -0.10483917E-03  0.13913883E-03  0.10754647E-04
 -0.41384868E-04 -0.14184609E-04 -0.55862291E-05 -0.32243956E-04 -0.47371849E-04
 -0.25306607E-04  0.25496290E-04  0.42477100E-04 -0.81965564E-04 -0.26347348E-04
 -0.35736778E-03  0.60004669E-04 -0.11399100E-03 -0.30672786E-03  0.28763901E-03
 -0.20097986E-03 -0.94371366E-04  0.30377621E-03  0.15356218E-03 -0.30321230E-04
 -0.13729049E-05 -0.37440050E-04  0.19156414E-03 -0.14787564E-03  0.74741532E-04
  0.14087692E-04 -0.15521699E-02  0.72699917E-02 -0.54298963E-04 -0.20965079E-02
  0.22745430E-02 -0.13329359E-02 -0.40691005E-03  0.41669106E-03 -0.42349261E-03
  0.49150872E-05 -0.53703442E-05  0.61093832E-04 -0.14302022E-04 -0.30562144E-04
 -0.79683818E-05 -0.17730318E-04 -0.33538002E-04 -0.38193752E-04 -0.29057577E-03
 -0.82717165E-04  0.49840403E-03  0.16394015E-03  0.13274708E-05 -0.11931734E-03
  0.83164155E-04  0.11006760E-03 -0.12057573E-03 -0.32766918E-04 -0.35251414E-04
  0.11891832E-04  0.62125750E-05 -0.24602480E-04  0.60624363E-06 -0.27724323E-04
 -0.61517613E-05 -0.86606099E-05  0.26021455E-04  0.40801294E-04  0.34591207E-04
  0.11913737E-04 -0.17692875E-04 -0.21002442E-04  0.11105413E-04 -0.20025779E-04
  0.62858796E-05 -0.31540873E-04  0.71345516E-05 -0.29123524E-04 -0.51017376E-05
 -0.15157703E-04 -0.51670832E-05  0.22433044E-05 -0.36760408E-05  0.62508530E-05
 -0.12959247E-05  0.19081442E-04 -0.11694353E-04  0.39552188E-05 -0.32580853E-04
  0.67156100E-05  0.84618808E-05  0.99474706E-05 -0.15598905E-04 -0.23670310E-04
  0.55377133E-05  0.19058383E-04  0.24793585E-04  0.35386809E-04 -0.34558653E-04
  0.89402970E-05 -0.53091176E-05 -0.32234074E-04  0.25113330E-03 -0.31752089E-03
  0.43729133E-03  0.19318683E-03  0.41361277E-04 -0.63933854E-03 -0.18630189E-03
  0.10933832E-03  0.16296696E-03  0.27929276E-04 -0.25958158E-04  0.22145166E-04
  0.54363618E-05 -0.58137019E-05 -0.11195822E-04 -0.34035887E-05  0.16267969E-04
  0.64619874E-05  0.16208782E-03  0.48240837E-03  0.33962237E-03  0.70678765E-03
 -0.11891331E-03 -0.36928516E-03  0.37833472E-03  0.18529436E-04  0.39612099E-03

 -0.30898731E-04 -0.18436817E-04  0.26466902E-04  0.26275675E-04 -0.31262039E-04
  0.10042567E-04  0.10723476E-04  0.38707293E-05 -0.79576860E-05 -0.85312358E-05
  0.22751711E-04 -0.81505016E-04 -0.94193090E-05 -0.25696585E-04  0.50213011E-05
 -0.33516478E-04 -0.72022470E-05 -0.12997407E-04  0.58977048E-03  0.29917119E-03
  0.79747586E-04 -0.67171620E-03  0.22367340E-03  0.18877628E-03 -0.37309919E-03
 -0.12845169E-03  0.38762693E-04 -0.91065107E-05 -0.26300387E-04 -0.62577226E-05
 -0.42234408E-05  0.10196806E-04  0.31399117E-04  0.31651977E-05  0.14488340E-04
  0.45270136E-05  0.10169650E-03 -0.16532612E-03 -0.32117161E-03  0.11016426E-03
  0.15573585E-03  0.54061394E-03  0.29813010E-03  0.33696588E-03  0.27706338E-03
  0.23895198E-04  0.90016283E-05 -0.24475445E-04  0.53463441E-05 -0.12843675E-04
  0.50673299E-04 -0.67008467E-05  0.32837990E-04 -0.58224034E-05 -0.11398635E-04
  0.29442079E-04  0.55258429E-04 -0.25177092E-05 -0.32301239E-05  0.33128714E-04
  0.20898095E-04 -0.40430971E-08 -0.15997133E-04  0.19239540E-04 -0.27874742E-04
 -0.18172932E-04  0.18863949E-04  0.28401314E-04 -0.17995298E-04  0.79420937E-06
 -0.78140915E-05  0.24720696E-04  0.12066247E-04  0.78913648E-05  0.31565581E-04
  0.16108173E-05  0.34047942E-05 -0.20543034E-04 -0.83125317E-05  0.32471729E-05
 -0.78599769E-06 -0.11661424E-04  0.18552220E-04  0.79964428E-05  0.74927441E-05
 -0.19282971E-04  0.45693220E-04 -0.50594987E-05  0.16903030E-04 -0.17438181E-04
 -0.32340353E-04  0.12262533E-04 -0.35345416E-04 -0.15110813E-04 -0.12010149E-03
  0.14652375E-03 -0.18464448E-03  0.38384615E-04 -0.24866343E-03 -0.92552122E-05
 -0.32307840E-05 -0.18974997E-04 -0.18795830E-04 -0.46350383E-06  0.36158297E-04
  0.10412765E-04 -0.45351394E-04 -0.31856189E-04 -0.29038511E-03 -0.15919715E-04
  0.52919469E-03  0.12632107E-03 -0.16598877E-04 -0.15550807E-03  0.24899241E-03
  0.34553636E-03 -0.54660592E-04 -0.36551260E-04 -0.11049080E-03 -0.64014556E-04
 -0.40687756E-05  0.83607909E-04 -0.72211488E-04  0.51459112E-04  0.93934863E-04
  0.18462737E-03 -0.68986645E-03 -0.54298963E-04  0.52679449E-02  0.49440697E-03
  0.54022692E-03 -0.35238131E-03 -0.33753326E-03  0.32419006E-03  0.11075824E-02
 -0.44275823E-04 -0.90656616E-06 -0.40442264E-04  0.74674183E-05  0.22284273E-04
 -0.22100870E-04 -0.13527545E-05 -0.63370242E-05 -0.19081347E-04  0.14604059E-03
 -0.59139098E-04  0.23771630E-03  0.49315676E-04  0.24981220E-03 -0.11309444E-03
  0.69853111E-04 -0.82593185E-04  0.12958231E-04 -0.17478884E-04  0.49757044E-05
  0.41547876E-06 -0.43777375E-05 -0.13216131E-04  0.44728337E-04 -0.50631187E-05
  0.38053211E-05  0.14348413E-05 -0.47008510E-05 -0.13048363E-04 -0.65137901E-05
  0.52567506E-05  0.72615736E-05  0.28454475E-05  0.44792948E-05  0.20203093E-04
 -0.27916839E-04  0.61457012E-05 -0.62028306E-05  0.29577761E-04 -0.93888119E-06
  0.32434626E-05 -0.11861670E-05 -0.53226530E-05 -0.10946067E-04 -0.85349354E-05
 -0.11931797E-04  0.53105394E-05 -0.15772343E-04  0.82400721E-05  0.12203125E-04
  0.67143829E-05  0.79640408E-05  0.97869304E-05  0.18559140E-04  0.26045336E-04
  0.37238010E-04 -0.22062842E-04 -0.23782714E-04 -0.33212174E-04  0.21301620E-04
  0.16148861E-05 -0.50964791E-05  0.42846227E-05  0.86318479E-04  0.54446678E-03
 -0.17908208E-03  0.21923165E-03 -0.80800468E-03  0.12016679E-02 -0.21593401E-04
 -0.31638126E-03 -0.49492697E-03 -0.93171291E-05 -0.27932092E-04 -0.38951233E-05
 -0.84315936E-05  0.42266204E-04 -0.66962255E-05  0.20868328E-04 -0.65810888E-06
  0.93088229E-05 -0.20184958E-03 -0.15711027E-03 -0.12799764E-03  0.13824751E-03
 -0.32848016E-04 -0.69430098E-04  0.64279175E-04  0.57787593E-04 -0.31838144E-03

 -0.53234644E-05 -0.16795106E-04  0.12021845E-04 -0.23705419E-04  0.26023603E-04
  0.35977408E-04 -0.68580473E-05 -0.95024841E-05 -0.10330522E-04 -0.37022263E-04
  0.78220648E-05 -0.27431467E-04  0.53913805E-04 -0.16384279E-04  0.17684647E-06
 -0.28730724E-04 -0.89148622E-05 -0.17100541E-04  0.57488133E-03  0.33946811E-03
  0.19650983E-03 -0.23046949E-03  0.12087855E-03  0.21377471E-03  0.23388075E-03
  0.16239871E-03  0.44686170E-04 -0.26172493E-04  0.47376986E-05 -0.14835612E-04
 -0.17511757E-04  0.38910191E-04  0.14444766E-04  0.18985111E-04  0.14710440E-04
  0.45328624E-04 -0.33011698E-03 -0.17009394E-03 -0.14659778E-03 -0.42597868E-03
  0.12595851E-03 -0.33632000E-03 -0.56458781E-03 -0.62547015E-03 -0.20639774E-03
  0.32690956E-04 -0.35330226E-04 -0.27229850E-04  0.25575548E-04 -0.21835930E-05
  0.10517323E-04 -0.17536358E-05  0.74420330E-05 -0.20472875E-05  0.62695349E-05
  0.45867952E-04  0.55905326E-05  0.20247795E-04  0.34864075E-04 -0.10477839E-04
 -0.10032745E-04  0.25744036E-04 -0.12585427E-04  0.26456287E-04  0.21586063E-04
  0.15648335E-04  0.32331667E-04 -0.95091570E-05  0.14947984E-04 -0.16494654E-04
 -0.12682905E-04  0.22723326E-05  0.12117577E-04 -0.60315206E-05 -0.34710143E-04
  0.38127994E-05 -0.33313094E-04  0.31240519E-04  0.11107753E-04 -0.12666847E-04
 -0.15780964E-05  0.67260656E-04  0.88732566E-05 -0.13345766E-04  0.18301946E-05
  0.11737300E-04  0.38684470E-04  0.11608836E-05 -0.89715687E-06 -0.37510048E-04
  0.11549153E-03  0.25855520E-03 -0.35784956E-03 -0.52126411E-04  0.39169103E-03
 -0.13063216E-03 -0.10001987E-03  0.91320523E-04 -0.43364852E-03  0.37527202E-05
 -0.72199050E-05  0.25404599E-04 -0.10168320E-04  0.28355763E-04  0.21705543E-04
  0.46072008E-04 -0.46639459E-04 -0.34289168E-04 -0.60213017E-03 -0.24774015E-03
 -0.92347610E-04 -0.69898996E-03  0.34351888E-03 -0.12606682E-03  0.60629867E-04
  0.73437805E-04 -0.39204254E-03 -0.21638163E-03 -0.22506047E-03 -0.10578975E-04
 -0.37476913E-04  0.23458942E-04 -0.11376768E-03  0.19995266E-03 -0.78476055E-05
 -0.26893242E-04  0.11785963E-03 -0.20965079E-02  0.49440697E-03  0.11003237E-01
 -0.51264996E-02 -0.16549469E-02 -0.18735390E-02 -0.14904799E-02  0.11817618E-02
  0.13668922E-07  0.62384673E-05 -0.28830677E-04  0.14258825E-04  0.21294875E-04
  0.27822504E-04 -0.25051006E-05  0.54885107E-05  0.38396313E-04  0.99883382E-04
  0.80444595E-04 -0.11251620E-03 -0.30237805E-03  0.88062530E-04  0.12611536E-03
  0.11448357E-03  0.96329713E-05  0.30189387E-03 -0.53908095E-05  0.23478922E-04
 -0.49231067E-04  0.12326122E-04  0.54005510E-04 -0.18331009E-04 -0.32175135E-05
  0.93082146E-05  0.19699730E-04 -0.16478649E-04 -0.19033515E-04 -0.19416818E-05
 -0.26584959E-05 -0.90271361E-05  0.36543331E-04 -0.16094057E-04  0.14544483E-05
  0.28378841E-05 -0.23531867E-04  0.19837060E-04  0.13317133E-04  0.13288223E-04
 -0.61759340E-05  0.16165779E-04 -0.28549462E-04 -0.66407766E-05 -0.30033010E-06
  0.12976942E-04  0.41141580E-04  0.11624889E-04  0.38092185E-04 -0.63040824E-05
 -0.21120555E-05 -0.20499484E-04 -0.99747053E-05 -0.69636136E-05  0.56743311E-04
  0.14539430E-04 -0.98451933E-05 -0.34913418E-04  0.39033539E-04  0.65680175E-05
 -0.14858911E-04 -0.37236832E-05  0.33504810E-05 -0.21916498E-03  0.61049560E-03
 -0.21455002E-03  0.79890026E-03 -0.12319756E-03 -0.56302243E-03 -0.20854892E-03
 -0.64716544E-03  0.34347441E-04  0.34152781E-04  0.14177095E-04  0.12137116E-04
  0.39427388E-04  0.31542574E-04 -0.68623338E-05 -0.23707889E-04  0.13058436E-04
  0.14900529E-04 -0.31145316E-03 -0.47766447E-03  0.51058050E-03  0.18762865E-02
 -0.28583772E-03 -0.29196557E-03  0.44117228E-04  0.35079488E-03 -0.92555139E-04

 -0.22702578E-04  0.21200390E-04  0.83870835E-05  0.26437826E-04 -0.46160460E-04
 -0.18962343E-04  0.87536299E-05 -0.16056307E-04 -0.34326400E-04  0.26106536E-04
  0.88691616E-05 -0.40728296E-04  0.19640527E-04 -0.87594537E-04  0.36032542E-04
 -0.25887832E-04  0.18920606E-04 -0.16853343E-04 -0.25841082E-03 -0.51461975E-03
 -0.27527596E-03 -0.16670312E-03 -0.99354652E-04  0.67515737E-05  0.55406519E-03
  0.39962388E-04  0.30068489E-03  0.41952405E-04 -0.10332087E-04 -0.82024078E-05
 -0.27476615E-04  0.38189230E-04  0.40974874E-04 -0.37601971E-06 -0.20479344E-04
 -0.16738257E-04  0.19012346E-03  0.13025261E-04 -0.16815624E-03  0.18097531E-03
  0.68577333E-03 -0.55715509E-06  0.24983404E-03  0.21217837E-03  0.11110188E-02
 -0.21761307E-04  0.43625692E-04 -0.26657553E-04 -0.16137533E-04  0.53590098E-04
 -0.98499693E-05 -0.24000743E-04  0.78929679E-05 -0.18441080E-05 -0.29548278E-04
 -0.74940765E-04  0.32370063E-06 -0.12503886E-04 -0.11880963E-03  0.38318145E-04
  0.33854794E-04 -0.17755348E-04 -0.37604126E-05 -0.23015419E-04 -0.63687546E-04
 -0.16513507E-04 -0.98848508E-05  0.10067386E-04 -0.58069695E-05  0.57529480E-05
  0.25621080E-04  0.21272290E-04 -0.30828193E-04 -0.16623189E-04  0.18051280E-04
  0.14021444E-04  0.76954624E-04 -0.25031176E-04  0.27282588E-04  0.22329240E-05
 -0.25057804E-04 -0.15820064E-04  0.51802552E-04  0.19438221E-05 -0.81770370E-05
 -0.30245929E-04  0.11979193E-04 -0.20284869E-04  0.45923697E-05  0.28014335E-04
  0.33423556E-03 -0.18373075E-03  0.12382035E-03  0.26315648E-03 -0.83808472E-03
 -0.19869340E-03 -0.46610160E-04  0.17762954E-03 -0.31453488E-04  0.49521622E-04
  0.45871754E-04 -0.23187894E-04  0.17531075E-04 -0.38848193E-04  0.22984458E-04
 -0.11882645E-04  0.51033166E-04 -0.12876522E-04 -0.11236515E-03  0.10139189E-02
  0.74812199E-03  0.28143112E-03 -0.16106034E-02  0.93541168E-03  0.42238707E-03
 -0.28584233E-03  0.35501222E-03  0.38139476E-03 -0.85995918E-04  0.11810520E-04
 -0.20766509E-03  0.32548515E-03  0.10369898E-03 -0.99483442E-04  0.12263704E-03
  0.93264458E-04 -0.16335632E-02  0.22745430E-02  0.54022692E-03 -0.51264996E-02
  0.19262974E-01 -0.23598503E-02 -0.45711601E-02  0.60393923E-03  0.77309281E-03
 -0.38776593E-05 -0.15563158E-05  0.41124447E-04 -0.10717654E-06 -0.30780948E-04
 -0.60757475E-04  0.17970629E-05 -0.32823620E-04 -0.44755559E-04 -0.12808649E-03
  0.35631831E-03  0.97635364E-04  0.27859543E-03 -0.10330966E-03 -0.32667144E-03
  0.49164751E-03 -0.25937362E-03  0.15405118E-03 -0.24173547E-04  0.28859064E-04
 -0.91465664E-05  0.69319230E-05 -0.84464691E-04  0.15675905E-06 -0.28674311E-04
 -0.12680231E-04 -0.78801630E-05  0.11282003E-04  0.13628971E-03  0.30736243E-04
  0.16574425E-04  0.10015929E-04 -0.35588598E-04 -0.22125241E-05  0.65485667E-06
  0.95614692E-05 -0.14898975E-04 -0.18386873E-04  0.14132115E-04 -0.25304294E-06
 -0.42629299E-05 -0.71476640E-05  0.20804107E-04 -0.12303393E-05 -0.30756982E-05
  0.30316109E-04 -0.79097509E-04  0.48497240E-04 -0.45407315E-04  0.10263067E-03
 -0.18814295E-04  0.93838231E-05  0.91670998E-05  0.28971110E-04 -0.38159102E-04
  0.10805161E-04  0.13852652E-04 -0.97839403E-05 -0.83382299E-04  0.27665757E-04
 -0.18801020E-04  0.26740349E-05  0.27973864E-04  0.25197920E-03  0.71805480E-04
 -0.10212651E-02  0.49630092E-03 -0.17814592E-02  0.12498613E-02 -0.48486072E-03
 -0.82472203E-03 -0.16289793E-03 -0.30976741E-04 -0.42211303E-04 -0.76974508E-05
 -0.46037208E-04  0.27724350E-04  0.17464344E-06  0.28404383E-04 -0.12378188E-04
  0.26870637E-05  0.34259394E-03 -0.82200244E-04 -0.46817156E-03 -0.32297663E-03
 -0.11442433E-02 -0.65955995E-04  0.12748927E-03  0.13333838E-04  0.48172745E-03

 -0.43597398E-06 -0.82498977E-05 -0.28141797E-04  0.20083230E-04 -0.18306958E-05
 -0.35101866E-04  0.52568261E-06  0.17026470E-04  0.28195626E-05  0.26462056E-06
  0.77780262E-05  0.50742489E-04 -0.12865916E-04  0.14508946E-04  0.13704493E-05
  0.27951574E-04 -0.55135643E-05  0.11967402E-04 -0.22283818E-03 -0.10434741E-03
  0.12507173E-03  0.59383209E-03 -0.28174286E-03  0.15134990E-03 -0.31002582E-04
  0.23339824E-03 -0.16567325E-03 -0.93078572E-05 -0.19084152E-04  0.38834629E-05
  0.10954974E-05 -0.66222842E-05 -0.73807067E-05 -0.31221577E-04 -0.59563363E-05
 -0.19770409E-05 -0.40995765E-04 -0.13786126E-03  0.24692105E-03  0.86096190E-04
 -0.72770742E-03  0.78482366E-03  0.11437911E-03  0.20040450E-03 -0.24766068E-03
  0.18383127E-04  0.13149430E-04  0.16118936E-04  0.10625418E-04 -0.37293298E-04
  0.36386076E-04  0.50644746E-05 -0.22097663E-04  0.17084207E-04 -0.25492024E-04
 -0.94367558E-05 -0.21232727E-05  0.41522617E-05  0.19595364E-04 -0.16801542E-04
  0.55867044E-05  0.87282135E-05  0.15195291E-04 -0.26738914E-05  0.78469448E-05
  0.14936836E-04  0.87524621E-05 -0.14548586E-04  0.15416728E-04 -0.74584723E-05
  0.24528044E-05 -0.30994669E-04  0.10677350E-04 -0.15882744E-04 -0.57506530E-05
 -0.52479090E-06  0.18448356E-04 -0.15998094E-05 -0.10521356E-04 -0.80844963E-05
 -0.18644094E-04  0.56034996E-05  0.27326873E-04 -0.32982321E-04  0.13465589E-04
  0.35654337E-04 -0.60075519E-04  0.42357087E-05 -0.12435203E-04 -0.62354385E-05
 -0.22702791E-04 -0.90765633E-04 -0.11319242E-03  0.73396834E-05  0.34698622E-03
 -0.51334714E-03  0.73682875E-04  0.17426609E-05 -0.13045454E-03 -0.19263872E-04
  0.31238626E-04  0.18859040E-04  0.16912193E-04  0.17667081E-04 -0.40005449E-05
 -0.10945230E-04 -0.13829967E-04 -0.18876238E-04  0.57646243E-04  0.15327887E-03
 -0.73769429E-04  0.37415522E-03 -0.55542269E-05  0.28188151E-03 -0.82884005E-04
  0.35517673E-03  0.38693279E-03 -0.79841182E-04 -0.95458252E-04  0.84522285E-04
 -0.27484404E-04  0.50570156E-04 -0.11477902E-03  0.25729497E-04 -0.77061037E-04
 -0.12964102E-03 -0.37794816E-04 -0.13329359E-02 -0.35238131E-03 -0.16549469E-02
 -0.23598503E-02  0.83772885E-02  0.24073978E-04 -0.18118571E-02 -0.51637756E-04
  0.88988381E-05  0.20758380E-05 -0.28835792E-04  0.16013663E-04  0.21995043E-04
 -0.89132978E-06  0.18733900E-04  0.99114254E-05  0.85754129E-04  0.18923368E-03
  0.10349837E-03 -0.27420380E-03 -0.71106487E-04 -0.32517354E-03  0.62426804E-04
 -0.27118658E-03  0.85537828E-04 -0.13397273E-03  0.21427646E-04  0.24517531E-04
  0.41594185E-04 -0.99094176E-05  0.62316641E-06  0.28902594E-04  0.39494356E-05
  0.39107882E-04  0.80724431E-05  0.89625619E-06 -0.86483952E-05 -0.56518849E-04
  0.21463325E-05  0.74582654E-05  0.60227591E-05  0.55441873E-05 -0.19857554E-04
 -0.37963748E-04  0.11284672E-04 -0.22781834E-04  0.10888152E-04  0.33252132E-04
 -0.16651185E-04 -0.41525705E-04  0.51245390E-06  0.67884587E-05  0.94595473E-05
 -0.21753100E-04 -0.57719248E-05 -0.19441299E-04  0.94366361E-05 -0.21432124E-04
 -0.19287605E-05 -0.25995963E-05  0.27075032E-04  0.24796076E-04 -0.48788594E-06
  0.14484537E-04 -0.45075306E-05 -0.64968138E-05 -0.11845022E-04  0.92116900E-05
 -0.25700111E-04 -0.18794857E-05  0.20601299E-04  0.21214869E-03  0.86641803E-04
  0.15178166E-03 -0.24564191E-03  0.83643444E-04  0.83019209E-03 -0.12546229E-03
 -0.81471005E-04  0.40221241E-05 -0.81815275E-05  0.71580525E-05 -0.25101958E-05
 -0.24951372E-04  0.13508647E-04  0.35471206E-04  0.77929765E-05 -0.66314087E-05
 -0.30876938E-04 -0.18402617E-03  0.10990242E-03 -0.10812668E-02 -0.14243327E-02
  0.32019591E-03  0.52945559E-03 -0.11652994E-03 -0.35240055E-03 -0.51315801E-04

  0.11462969E-04 -0.15972322E-04  0.63878432E-05 -0.11628434E-04 -0.39875843E-04
 -0.45962820E-05  0.74429298E-05  0.14649666E-04  0.52123918E-05 -0.85633078E-05
  0.30176513E-04  0.18191031E-04 -0.42700356E-04  0.42814748E-04 -0.10317934E-05
  0.42059428E-05 -0.40830815E-05 -0.51058700E-05 -0.37403984E-03 -0.14187418E-03
 -0.10057733E-03  0.45757375E-04 -0.61716342E-04 -0.21400277E-03 -0.64612065E-03
 -0.33357056E-03 -0.24586722E-03 -0.15807952E-04 -0.18006952E-04  0.70583627E-05
  0.19147876E-04 -0.42711447E-04 -0.39643008E-04 -0.22317799E-04  0.14994214E-04
 -0.10223206E-04  0.12260391E-03  0.22633976E-03  0.42066698E-03 -0.11841814E-03
 -0.18858927E-03 -0.25885913E-04  0.13525660E-03  0.14638678E-03 -0.44314346E-03
 -0.11307548E-04  0.21489332E-04  0.12561932E-04 -0.29683576E-04 -0.37690816E-04
  0.29846128E-08  0.27991414E-05 -0.93190581E-05 -0.15083063E-04  0.36527665E-05
 -0.31923803E-04 -0.10880107E-04  0.75155749E-05  0.29787973E-04 -0.21301548E-04
  0.14108507E-05  0.41749874E-05  0.10993629E-04 -0.91543533E-05 -0.25351403E-05
 -0.21354786E-05 -0.30265259E-04  0.18246418E-04 -0.14086714E-04  0.26924562E-05
 -0.17783336E-04 -0.10710239E-04  0.13804606E-04  0.30794591E-05  0.38975514E-05
 -0.18979282E-04 -0.68859261E-05 -0.22459014E-05 -0.61157004E-05 -0.44582559E-05
  0.16480811E-04 -0.19564809E-04  0.24950554E-04  0.38814928E-05  0.14503588E-05
  0.11209140E-04 -0.23272240E-04  0.55148424E-05  0.11014871E-04  0.20434959E-04
 -0.27314668E-03  0.19851082E-03  0.21776595E-03 -0.13680838E-03  0.27357387E-03
  0.23615246E-03  0.18488657E-03 -0.89754582E-04  0.26472152E-03  0.18659082E-05
 -0.24127075E-04 -0.40976526E-04  0.15309059E-04  0.26749441E-05 -0.33362522E-04
 -0.15147828E-04  0.51422296E-05  0.48646807E-04  0.67183232E-03 -0.37565256E-03
 -0.45842357E-03 -0.31805895E-03  0.28999351E-03  0.24321215E-03 -0.29111349E-03
 -0.27071082E-03 -0.17133012E-03 -0.16233627E-03  0.29692808E-03 -0.80117515E-04
  0.27806583E-03 -0.15782020E-03  0.70573058E-04  0.75173927E-04 -0.40340228E-04
  0.38536057E-04  0.17028395E-02 -0.40691005E-03 -0.33753326E-03 -0.18735390E-02
 -0.45711601E-02  0.24073978E-04  0.72007486E-02  0.40516196E-03 -0.12707289E-02
  0.80294537E-05  0.27563999E-04  0.27601413E-04 -0.15745182E-05  0.27256711E-05
  0.10473958E-04 -0.31250409E-04  0.10242302E-04 -0.38172628E-04  0.70115434E-04
 -0.12407097E-03  0.20031313E-03 -0.72574727E-05  0.37784135E-03  0.23291531E-04
 -0.39186577E-03  0.24798534E-03 -0.97064405E-04  0.22629410E-04 -0.22717903E-04
  0.12931139E-04 -0.11472566E-04  0.15380751E-04 -0.10569740E-04  0.27726767E-04
 -0.92177441E-05  0.54571050E-05  0.17434133E-05 -0.46258603E-04 -0.79627340E-05
 -0.27155186E-04  0.24800750E-04 -0.25518283E-05  0.65748094E-05  0.42328930E-06
  0.24321045E-05  0.23935748E-04 -0.99826909E-05 -0.54131214E-05 -0.35120988E-04
  0.32236912E-04  0.23350745E-06 -0.14368878E-05 -0.24543043E-05  0.48680938E-05
 -0.50662906E-05 -0.14470002E-04 -0.28951976E-04 -0.59583455E-05 -0.54863147E-04
  0.47349654E-05  0.52368010E-05  0.73144866E-05  0.17968805E-05 -0.16855366E-04
 -0.34526930E-04  0.22857538E-05  0.30546239E-04 -0.16193253E-04 -0.16586017E-04
  0.12461946E-04 -0.20654265E-05 -0.16153198E-04  0.63227522E-04 -0.52791347E-03
  0.27088567E-03 -0.59126480E-03  0.67589574E-03 -0.26926037E-03  0.33912102E-03
  0.64266050E-03 -0.26264029E-03 -0.12435361E-04  0.22637641E-05 -0.52004823E-06
  0.14424977E-04 -0.49092629E-04 -0.50656965E-05 -0.11437500E-04 -0.51089701E-05
 -0.15135973E-04  0.25617996E-04  0.51953370E-03 -0.83916774E-04 -0.46151919E-03
  0.41374597E-03  0.16448520E-03 -0.24970401E-03  0.11181543E-03 -0.13837581E-03

 -0.10274796E-04  0.10223497E-04 -0.13439074E-04  0.67642972E-05  0.80030193E-06
 -0.46817057E-05 -0.43183523E-05  0.28177200E-05 -0.52638310E-05 -0.34542504E-05
 -0.16372954E-04 -0.33841704E-04  0.24461416E-05 -0.97342561E-05 -0.36055651E-05
 -0.11264912E-04  0.16962061E-04 -0.15574149E-04 -0.30511111E-03 -0.16142186E-03
 -0.20731048E-03 -0.18121750E-03  0.81435997E-04 -0.22619646E-03 -0.12900159E-03
 -0.28448110E-04  0.10117907E-03 -0.82813102E-05  0.15384632E-04 -0.87354172E-05
 -0.46327172E-05  0.14357112E-04 -0.46005749E-04  0.11189766E-04 -0.26706516E-04
 -0.12300631E-04  0.23062624E-03  0.22295881E-03  0.17958007E-04  0.28867617E-04
  0.24519142E-03 -0.29464422E-03  0.17172066E-03  0.14186785E-03 -0.61540606E-04
 -0.31472096E-05 -0.74779466E-05  0.33238458E-04  0.68166895E-05  0.69717838E-06
 -0.56939604E-05 -0.74437124E-06  0.18706162E-04  0.18783644E-05  0.80035560E-05
 -0.17888401E-05 -0.19979945E-04  0.16899084E-04 -0.82219003E-05 -0.30747631E-05
  0.76512133E-05 -0.70942429E-05  0.15667810E-04  0.33857037E-05 -0.43280304E-05
 -0.11970909E-04 -0.15648180E-04  0.21941776E-04 -0.48133173E-05 -0.27029978E-05
 -0.79384435E-06 -0.96993217E-05 -0.28899426E-04  0.72330010E-05  0.16824425E-04
 -0.21244022E-04  0.31828515E-05 -0.12366263E-04 -0.16054931E-04 -0.17874850E-05
 -0.67139010E-06 -0.24353813E-04 -0.22912254E-04  0.11768279E-04  0.19427846E-05
 -0.32669951E-04  0.91178109E-05 -0.16924003E-05  0.11842213E-04  0.53997251E-05
  0.48052935E-04  0.15879229E-03  0.16394393E-03 -0.11983381E-04 -0.90225654E-04
  0.13982914E-03 -0.14684026E-04 -0.10148688E-03  0.22022766E-03 -0.29980368E-05
 -0.71581081E-05  0.24539540E-05 -0.78689104E-05  0.67854023E-05  0.94542320E-05
 -0.35849287E-05 -0.19541469E-05 -0.63251204E-05 -0.11841604E-03 -0.20714447E-04
 -0.26737179E-03 -0.64566726E-03  0.34057020E-03  0.39665377E-03 -0.23325476E-04
  0.84731893E-04  0.33861717E-03  0.24201911E-04  0.94455636E-05 -0.80050589E-04
  0.50411007E-06  0.20091917E-04 -0.21601056E-04 -0.44002801E-04 -0.15583462E-04
  0.13772593E-03 -0.85005577E-04  0.41669106E-03  0.32419006E-03 -0.14904799E-02
  0.60393923E-03 -0.18118571E-02  0.40516196E-03  0.39969862E-02 -0.93433391E-03
  0.14503803E-04 -0.22477528E-05  0.24243459E-04 -0.12805937E-04 -0.48687273E-05
 -0.13894184E-04  0.12460958E-04 -0.50092603E-05 -0.15777644E-04  0.16628521E-05
  0.16475060E-05  0.85683422E-04  0.36970856E-04  0.14126409E-03  0.10468992E-03
  0.19310530E-04 -0.14903532E-03 -0.11750965E-04 -0.19294454E-04 -0.14160662E-04
  0.54878060E-05  0.51137743E-05 -0.30277542E-04  0.38613800E-04  0.12028535E-04
 -0.16842669E-06 -0.46434990E-05  0.81253080E-06  0.34500346E-05  0.34285517E-04
  0.52269929E-05 -0.15916385E-04 -0.45631384E-04 -0.70590714E-05 -0.50471871E-05
 -0.90589242E-05  0.10874676E-04  0.33442538E-05 -0.10855710E-04 -0.20190510E-04
  0.54571511E-05  0.29511464E-05  0.13431713E-05 -0.11009033E-04 -0.21242202E-04
  0.10019145E-05 -0.20371152E-05 -0.20164339E-04 -0.15282925E-04  0.27487209E-04
  0.23026893E-04  0.19530490E-04 -0.44706994E-05  0.62090968E-05 -0.19027556E-04
 -0.36290609E-05  0.38413087E-05 -0.17065589E-04  0.18874216E-04  0.30992362E-05
  0.23601550E-05 -0.65524404E-05 -0.12534327E-04 -0.73907276E-04 -0.10813042E-03
  0.30420016E-03 -0.27316505E-03  0.60402061E-04 -0.47582658E-03  0.88172853E-04
  0.11380324E-03 -0.33501305E-03 -0.19817019E-05 -0.17342162E-04 -0.11049626E-04
  0.52743190E-05  0.96993036E-05 -0.51018429E-05 -0.10964308E-05  0.25897013E-08
  0.90892330E-05 -0.23257966E-03  0.53943638E-04 -0.20030789E-03  0.47675914E-03
  0.69858555E-04 -0.32665507E-03 -0.16518936E-04 -0.43816399E-04 -0.16004772E-03

  0.38311521E-05 -0.25460809E-04  0.95687893E-05  0.11402954E-05 -0.32311259E-04
  0.20424270E-04  0.12235359E-04 -0.14059435E-04  0.51625221E-05 -0.56661446E-05
  0.22252273E-04 -0.41449263E-05  0.14542654E-04 -0.18676622E-04  0.13304097E-04
 -0.27448589E-04  0.20542134E-05  0.10919258E-05  0.61078918E-04  0.12618162E-03
 -0.10927213E-03 -0.62563848E-03  0.30852326E-03  0.85178426E-04  0.47071367E-04
 -0.26783179E-04  0.13990250E-03  0.18056117E-05  0.15656858E-04  0.11927328E-04
 -0.92060071E-05  0.20857711E-04  0.46376975E-04  0.11192089E-04 -0.99661693E-05
 -0.90051655E-05  0.19768245E-03 -0.17910410E-03 -0.26664189E-03  0.11778235E-03
  0.42856228E-03  0.18195146E-03  0.18746504E-03  0.13942980E-04  0.44508998E-03
 -0.27881463E-06 -0.12369147E-04  0.69394558E-05  0.11007529E-04 -0.70616419E-05
 -0.21234433E-04 -0.10494945E-04 -0.23859490E-04 -0.99036379E-05 -0.89798550E-05
  0.10012294E-04 -0.43866413E-05  0.14868445E-05 -0.12431222E-04  0.24682227E-05
 -0.59660265E-05  0.73956822E-05 -0.26509479E-05 -0.79393275E-05  0.70443621E-06
  0.29167244E-06 -0.11581243E-04  0.29573905E-04  0.21127954E-04  0.35736047E-05
  0.11721056E-04  0.50857115E-05  0.51709065E-05 -0.34419464E-05  0.88727671E-05
  0.86636370E-05 -0.21325714E-06 -0.10686830E-04  0.58996484E-05 -0.88279118E-05
  0.34613875E-05  0.54849692E-05 -0.25387861E-05  0.28901950E-04  0.14562012E-04
  0.11604005E-04  0.10420044E-04 -0.78189353E-05 -0.79910852E-05 -0.54689938E-04
 -0.92378203E-05  0.27522276E-03 -0.28379583E-03  0.12189346E-04 -0.28693345E-03
  0.36054159E-03  0.13585774E-03  0.38936883E-04  0.60303216E-04  0.50563390E-05
  0.15517617E-04  0.59665481E-04 -0.12467131E-04 -0.15700433E-04  0.62788744E-04
  0.16212358E-04 -0.20165834E-04 -0.45302083E-04 -0.20769836E-03 -0.49795090E-05
  0.95391366E-03 -0.70853805E-03 -0.21899953E-03  0.58249409E-03 -0.15353241E-04
 -0.33650915E-04 -0.15097887E-03 -0.87479539E-04 -0.12866845E-03 -0.17699946E-03
 -0.58901087E-05  0.63365981E-04 -0.11308709E-03  0.64097461E-04  0.19276286E-03
  0.17451993E-03 -0.16635932E-03 -0.42349261E-03  0.11075824E-02  0.11817618E-02
  0.77309281E-03 -0.51637756E-04 -0.12707289E-02 -0.93433391E-03  0.72572311E-02
 -0.10334492E-04  0.76804775E-05  0.10963278E-04  0.12473103E-04  0.23825337E-04
 -0.37098376E-04 -0.13437599E-05  0.16598592E-04 -0.85149742E-05  0.17986329E-03
 -0.27256156E-04 -0.19847758E-03  0.70734445E-04  0.16989399E-05 -0.16202795E-04
  0.25018778E-05  0.40789392E-04 -0.24609562E-03  0.10379278E-04  0.18424750E-04
 -0.11366426E-04 -0.42182224E-05  0.22202519E-05  0.13000025E-05  0.10545559E-04
 -0.82833483E-06  0.15000690E-04  0.21522992E-05  0.10778860E-04 -0.17469706E-04
 -0.13627629E-04  0.26905081E-04  0.15305882E-04  0.12161188E-04  0.10111649E-04
  0.17830964E-04 -0.75306991E-05 -0.39463382E-05  0.23669873E-04  0.18848032E-04
 -0.15856531E-04  0.46302772E-05 -0.61091151E-05  0.13195890E-05 -0.13726498E-04
 -0.84193079E-05  0.46201632E-05  0.19851095E-04  0.10093116E-04  0.12506943E-04
 -0.13490318E-04 -0.13972084E-04  0.46474999E-06 -0.34410068E-05  0.82038085E-07
 -0.17876975E-04 -0.54667639E-05  0.21327469E-04 -0.60767755E-04 -0.64044073E-05
 -0.64693277E-05 -0.17310564E-05 -0.30507274E-05  0.13472490E-03  0.29506916E-03
 -0.44356662E-03 -0.11214373E-04 -0.80313697E-03  0.17898015E-02 -0.22904982E-03
 -0.15560438E-03  0.31688995E-03  0.48819789E-05  0.12124027E-05  0.15631740E-04
  0.11008120E-05  0.44882920E-05 -0.41036806E-05  0.20003676E-05 -0.28981518E-05
 -0.69143709E-05 -0.61536918E-04 -0.24210155E-03 -0.38927940E-04  0.26076328E-03
 -0.70375925E-04 -0.37265118E-03  0.12332670E-03  0.11230799E-04 -0.27441594E-05

 -0.10260967E-05  0.49410658E-06 -0.18249823E-05  0.94902350E-06  0.19718425E-06
 -0.23901989E-06 -0.66992073E-06 -0.60122377E-07 -0.15935213E-06 -0.41775650E-07
 -0.20034896E-05 -0.29674629E-06  0.44526461E-06  0.16290474E-05 -0.27647593E-05
  0.50928813E-06  0.12145499E-05 -0.11972376E-05 -0.21031386E-04 -0.36250018E-04
  0.15354710E-05  0.50655305E-05  0.29366526E-04 -0.10788738E-04  0.88496982E-05
  0.43667049E-05 -0.13140024E-04  0.21760079E-05  0.12561774E-08 -0.22053544E-05
 -0.26027377E-05 -0.98441645E-06  0.16886194E-05  0.26169755E-06 -0.22956394E-05
  0.65818853E-07 -0.51662262E-05  0.63176800E-05 -0.70588843E-05  0.22706191E-04
 -0.40953773E-04 -0.13143665E-04 -0.33460411E-04 -0.17381636E-04 -0.50305316E-05
 -0.66461981E-06  0.28626655E-06  0.93020938E-06 -0.82132584E-06 -0.21641278E-06
  0.76702850E-06 -0.45315545E-06  0.37201560E-06  0.12110598E-05  0.65343173E-06
 -0.14800456E-05 -0.41753386E-06  0.40952677E-06 -0.22065578E-06  0.25928756E-05
 -0.26212967E-07  0.47350215E-06 -0.14514495E-06  0.15303714E-05  0.91903720E-06
  0.10154442E-07 -0.44755984E-07  0.14309804E-05 -0.65691020E-06  0.57896462E-06
  0.58377109E-06  0.21375116E-07 -0.34811979E-05 -0.77395489E-06  0.23396611E-07
 -0.11784742E-05 -0.36284080E-06 -0.12307709E-05  0.57363390E-06  0.56850997E-07
 -0.11909311E-05 -0.14585102E-05  0.61296355E-06 -0.10746353E-05 -0.13965358E-05
  0.13702194E-05 -0.97648264E-06  0.48145156E-06 -0.27641001E-05  0.52530424E-06
 -0.67669209E-06 -0.15771923E-04 -0.74413296E-05  0.57982898E-05  0.78838137E-05
 -0.68640746E-05  0.52381940E-05  0.68299215E-05  0.26754029E-05 -0.20173233E-06
  0.73910974E-06  0.40251607E-05 -0.11805665E-05  0.14375475E-05  0.15638907E-05
  0.11341589E-05  0.10580347E-06 -0.51959680E-06 -0.85076133E-06  0.30983831E-05
 -0.18069517E-05 -0.16196274E-04  0.80613942E-05  0.15643378E-04  0.25248208E-05
  0.64649648E-05  0.28607957E-04 -0.94320593E-06  0.15641060E-05  0.46396845E-07
  0.18621680E-05 -0.23840522E-05 -0.42145427E-06 -0.17170947E-05 -0.21743815E-05
 -0.15592105E-05  0.69303172E-05  0.49150872E-05 -0.44275823E-04  0.13668922E-07
 -0.38776593E-05  0.88988381E-05  0.80294537E-05  0.14503803E-04 -0.10334492E-04
  0.31198812E-04  0.45036565E-06 -0.19146505E-05 -0.26291779E-06  0.27967927E-05
  0.66534745E-06 -0.15363074E-06  0.63699593E-05 -0.20087294E-06 -0.12303368E-04
  0.37793423E-04 -0.55983055E-04 -0.58838606E-04 -0.37154219E-04  0.95098227E-04
 -0.28770410E-05  0.20539740E-04 -0.69421095E-04 -0.11708604E-05  0.37260692E-05
  0.74197910E-06  0.19524496E-05 -0.41884641E-05  0.70217384E-06  0.48038287E-06
 -0.10479856E-05  0.11772997E-05 -0.18990227E-05  0.65491145E-06 -0.85970945E-06
 -0.19036357E-05 -0.14313053E-05 -0.89212785E-06  0.64415214E-08 -0.56645943E-06
 -0.52282390E-06 -0.12329492E-06  0.32521716E-06 -0.14551103E-05 -0.26626999E-06
 -0.67305150E-06 -0.51869757E-06 -0.13288829E-06  0.32666885E-07  0.15552512E-05
  0.11560933E-05 -0.94026450E-06  0.70627624E-07  0.46903081E-06  0.27287389E-05
  0.28115645E-06  0.34563553E-06  0.20666827E-06 -0.15159677E-06 -0.18217475E-05
  0.33571816E-06  0.16224002E-05 -0.10535911E-05  0.15332215E-05 -0.85111936E-06
  0.40255711E-06 -0.10104011E-05 -0.99901529E-06  0.59065908E-05 -0.14253880E-04
  0.13471945E-04 -0.36677739E-04  0.67250688E-05 -0.49856979E-04  0.43049976E-05
  0.22084442E-04 -0.86734510E-05 -0.80599704E-06 -0.63086050E-06 -0.29147413E-06
  0.17904649E-05 -0.15919795E-05 -0.74922851E-06  0.26593564E-06 -0.16292072E-06
  0.10017755E-05 -0.68630773E-05 -0.27650368E-05  0.17090779E-04  0.54214063E-05
  0.25619493E-05 -0.88737327E-05  0.12657887E-04 -0.56520891E-05  0.10557077E-04

 -0.26003909E-05 -0.19325366E-05  0.16821471E-05  0.11301656E-06 -0.34508557E-06
 -0.23550190E-05  0.10664229E-05  0.82553185E-06 -0.14024795E-06  0.23674263E-06
 -0.17449511E-06  0.40415913E-05 -0.35412165E-07  0.34751190E-06 -0.85773861E-06
  0.20100577E-05  0.37444680E-06 -0.15963002E-05  0.90838360E-05 -0.31662876E-04
  0.18265038E-05  0.31295439E-05 -0.53360942E-04  0.28536783E-04 -0.27684692E-04
  0.75925926E-05  0.41141739E-04  0.97382710E-06  0.22833261E-05  0.44139302E-05
  0.10079143E-05 -0.11508262E-05 -0.14871145E-05 -0.13149873E-05  0.44724966E-06
 -0.39474037E-05  0.85093499E-06  0.23177821E-05 -0.23253048E-04  0.98922451E-05
 -0.66875885E-05  0.18194910E-04  0.15547240E-04 -0.78034671E-06 -0.29035199E-04
 -0.18521947E-05 -0.27329237E-06 -0.16860498E-05 -0.17201884E-05 -0.10825349E-05
 -0.13555441E-05 -0.85811566E-06 -0.89300218E-06 -0.13617203E-05 -0.11200939E-05
 -0.10881712E-05 -0.21712421E-06  0.16291639E-06  0.13930731E-05 -0.13851297E-05
  0.13788202E-05  0.32178698E-06 -0.10054330E-05  0.30598091E-06 -0.10555492E-05
 -0.11180384E-05 -0.26236516E-06  0.70927802E-06 -0.19588426E-06 -0.67138595E-06
 -0.38580029E-07 -0.15711460E-05  0.10973384E-05 -0.63426028E-05  0.12923745E-05
  0.41384272E-06 -0.31017358E-05  0.70983695E-06  0.64538591E-06  0.32205035E-06
  0.80002886E-08  0.50197208E-07  0.54831606E-05  0.55588534E-06 -0.62728662E-07
  0.42771750E-05 -0.79433665E-06  0.22917248E-05  0.21822145E-05  0.55102065E-06
 -0.12460838E-04 -0.77651304E-05 -0.45354202E-05 -0.11203920E-05 -0.25687871E-04
  0.40485930E-04  0.10409063E-04 -0.34937233E-05 -0.24375297E-04 -0.12543579E-05
 -0.22588404E-05  0.21297574E-05 -0.58650538E-06  0.81008743E-05 -0.21824372E-05
  0.14794315E-05 -0.96606335E-06  0.10238559E-05 -0.52210397E-06 -0.42693151E-04
 -0.21525593E-04  0.20837836E-04 -0.20447278E-04 -0.14475834E-04 -0.11226528E-04
  0.15850448E-04 -0.71003086E-05 -0.12450993E-05  0.88997511E-06  0.41468334E-05
 -0.92110657E-06 -0.19531460E-05  0.47184141E-05  0.33522483E-05 -0.11498439E-05
  0.16097899E-05  0.14672967E-04 -0.53703442E-05 -0.90656616E-06  0.62384673E-05
 -0.15563158E-05  0.20758380E-05  0.27563999E-04 -0.22477528E-05  0.76804775E-05
  0.45036565E-06  0.49429875E-04 -0.35831141E-05  0.32331662E-05  0.27704092E-05
 -0.23339421E-05 -0.80747121E-06  0.58736646E-06  0.39286306E-06  0.23716541E-04
 -0.79566820E-05 -0.52821789E-04 -0.54747547E-05 -0.68419193E-04  0.38554227E-04
 -0.34633477E-04 -0.39532607E-04  0.54939847E-04  0.50082439E-05  0.22571927E-05
 -0.23514070E-05  0.73915429E-06 -0.59134073E-05  0.44251873E-05 -0.38735907E-05
  0.52075173E-06  0.52621783E-06  0.21699928E-05 -0.40990895E-05  0.56730214E-06
  0.79703410E-06  0.14519641E-05 -0.90334253E-06  0.73944533E-06  0.14866412E-05
 -0.18229931E-05  0.71262115E-06 -0.49294749E-05 -0.19778983E-05 -0.46058403E-06
  0.11861469E-05 -0.14760069E-06 -0.19726866E-05 -0.91705012E-06 -0.49771946E-06
 -0.45767973E-06 -0.98616710E-06 -0.15538022E-05  0.17005827E-05 -0.35220552E-06
  0.12306461E-05  0.11749556E-05  0.30901373E-06  0.31985677E-05  0.85820644E-06
 -0.49681107E-05  0.13524841E-05  0.92705664E-06 -0.22667134E-05 -0.18925672E-06
  0.24948628E-05 -0.48030696E-06 -0.70287775E-06 -0.50152444E-05 -0.80854721E-05
 -0.61156158E-04 -0.49320859E-05 -0.59263087E-04  0.47800907E-04  0.38409900E-04
  0.17881835E-04 -0.83348728E-04 -0.32851527E-06 -0.70023099E-06 -0.39580456E-06
  0.68161763E-06 -0.13665633E-06  0.41110369E-06  0.40447945E-06  0.91667538E-06
 -0.24727270E-06  0.16313325E-04 -0.20546818E-04 -0.15543107E-04 -0.10820990E-04
  0.33312634E-04  0.54293739E-05 -0.32672941E-05  0.24014483E-05 -0.41100360E-04

 -0.15640372E-06  0.10470972E-05 -0.87179634E-06  0.53100681E-06 -0.48272977E-06
  0.54645183E-07 -0.46071494E-06 -0.11346136E-05 -0.44394406E-06  0.26828228E-06
  0.22070745E-05 -0.11284078E-05 -0.17612026E-05  0.21414333E-05  0.51713124E-05
 -0.14708008E-05 -0.84388698E-06  0.36548340E-05  0.25315920E-04  0.35645610E-04
 -0.17105582E-05  0.42259976E-04 -0.95732684E-05 -0.17617198E-04 -0.50972942E-04
 -0.92630135E-05 -0.16961688E-04 -0.75832295E-06 -0.39023781E-06  0.12504677E-05
  0.13948973E-05  0.10018964E-05 -0.89977964E-05  0.44751043E-06 -0.10356365E-05
 -0.30296836E-06 -0.18248056E-04  0.59064026E-05 -0.14087223E-04 -0.16804995E-04
  0.31748634E-04 -0.73174306E-04 -0.80139252E-05 -0.36504332E-04 -0.36316293E-04
 -0.10394171E-06  0.13094078E-06  0.12561613E-05  0.98448637E-06  0.18628501E-05
 -0.17619023E-05  0.11544602E-05  0.16745715E-06  0.71743050E-06 -0.37484605E-06
  0.38986560E-07 -0.11005312E-05  0.16154863E-05 -0.83030013E-06  0.18341455E-05
 -0.38752894E-06  0.37055464E-05  0.17786049E-05 -0.20613924E-05 -0.13819447E-05
  0.15969335E-05 -0.20825522E-06 -0.56093798E-06  0.62893631E-06 -0.11735952E-06
 -0.61694976E-06  0.10424493E-05  0.65689427E-06  0.25760572E-05 -0.57596354E-05
  0.13183881E-05 -0.13944725E-06  0.22128564E-05 -0.38255491E-06 -0.13888174E-05
 -0.12287045E-05 -0.25944236E-05  0.33692586E-06 -0.42604365E-05 -0.26786873E-06
 -0.82571287E-06 -0.35750171E-05 -0.54760248E-06  0.72328836E-06  0.18309852E-05
 -0.11195400E-05 -0.17535787E-04  0.37830686E-04 -0.23739899E-04 -0.52490647E-05
  0.50619317E-04 -0.14829826E-05  0.65109389E-05  0.22392227E-04  0.36555351E-05
 -0.91280281E-06 -0.21174452E-05 -0.11555611E-05 -0.14372672E-05  0.42112536E-05
 -0.71837831E-06  0.72582478E-06  0.26600335E-05  0.14035769E-05 -0.12543937E-04
 -0.33710175E-04 -0.40974929E-05 -0.17177902E-04  0.14569897E-03 -0.43155549E-05
 -0.16114165E-04  0.36530549E-04  0.17283624E-05  0.79200703E-05  0.16431062E-05
 -0.35653645E-05  0.27322991E-05  0.82312791E-05 -0.25407617E-05  0.16058289E-05
  0.66554949E-05 -0.21198747E-04  0.61093832E-04 -0.40442264E-04 -0.28830677E-04
  0.41124447E-04 -0.28835792E-04  0.27601413E-04  0.24243459E-04  0.10963278E-04
 -0.19146505E-05 -0.35831141E-05  0.54545489E-04 -0.66007288E-05 -0.76632405E-05
  0.90306312E-05 -0.63830073E-06 -0.41396333E-05 -0.48719892E-05 -0.65084733E-04
 -0.83871431E-04  0.13898204E-03  0.49221832E-04  0.79041302E-04 -0.12483084E-03
 -0.38693906E-04  0.96605527E-04  0.82176952E-04 -0.12428407E-05 -0.26946307E-05
 -0.13278334E-05 -0.10980510E-05  0.22692216E-05 -0.45340379E-06  0.21339368E-05
  0.69735721E-07 -0.76218893E-06 -0.20701793E-05  0.89377763E-06 -0.58037632E-06
  0.20723149E-06  0.72227177E-06 -0.78127599E-06 -0.55764033E-06 -0.24284695E-05
  0.17158802E-05 -0.15867373E-05 -0.12845913E-06  0.31619096E-06 -0.48153127E-06
  0.16898302E-05  0.14520759E-05  0.18283334E-05  0.19913449E-06  0.73373487E-06
  0.64883634E-06 -0.14787833E-06  0.94054276E-06  0.16251463E-06 -0.55740114E-06
 -0.64442220E-06  0.94285823E-06  0.62250128E-06 -0.86387832E-07  0.28116527E-05
  0.33071454E-06  0.20816671E-05  0.98151628E-06 -0.55794835E-06  0.60999112E-06
  0.80898947E-06  0.75618385E-06  0.25085011E-05  0.10540623E-04  0.35395338E-05
  0.18728466E-04  0.84847489E-05 -0.11023805E-04  0.37308743E-04  0.81707274E-05
 -0.40691601E-04 -0.70413273E-05 -0.42198963E-06  0.33694882E-07 -0.23029140E-05
  0.60761444E-06 -0.71189779E-06  0.12440849E-05  0.36786240E-06  0.58000245E-06
 -0.70585265E-06  0.14650541E-04  0.38695726E-05  0.23350319E-04 -0.17844363E-06
 -0.27030690E-05 -0.13635183E-04  0.18053699E-04 -0.14217620E-04 -0.57266498E-05

 -0.14403931E-06 -0.14300849E-05  0.28164670E-06  0.96532527E-06 -0.78942184E-06
 -0.27612719E-06  0.67976013E-06  0.11481608E-05 -0.73713824E-06  0.16410816E-05
  0.28537174E-05  0.27100366E-05  0.55699936E-07 -0.16657163E-05  0.31671400E-06
  0.16612312E-05  0.14318056E-05  0.29068672E-06  0.20996269E-04  0.27232541E-04
  0.13257606E-04 -0.73595248E-05 -0.25674960E-06  0.29121316E-04  0.12817650E-04
 -0.74666465E-05 -0.14235358E-05 -0.11590595E-05  0.28661078E-06  0.79810252E-07
 -0.21939419E-05 -0.45366927E-06  0.15113546E-05 -0.18477075E-05 -0.27853994E-07
  0.41292140E-06  0.82118108E-05 -0.65178102E-05  0.20836544E-05 -0.15837769E-04
 -0.26115849E-04  0.24334183E-04 -0.40943018E-05  0.16229503E-05 -0.32991142E-05
 -0.16530452E-05  0.93680684E-07 -0.11619640E-05  0.36171884E-06  0.18573865E-05
 -0.25627211E-05  0.12695747E-05 -0.23525789E-06  0.78510804E-07 -0.12779725E-05
  0.10507410E-05  0.49579256E-06 -0.27074014E-05  0.90146077E-06  0.69552776E-06
 -0.11935832E-05 -0.19854837E-06  0.76780775E-07  0.13769988E-05  0.11427188E-05
 -0.43858307E-06  0.63459260E-06  0.77575760E-06  0.91831547E-06  0.11134320E-06
  0.12750645E-05 -0.21424345E-06  0.19660911E-05  0.76458692E-06 -0.19987252E-06
 -0.15167462E-06 -0.10200431E-05  0.40555415E-06 -0.71280430E-06  0.85005064E-06
  0.10719998E-05  0.48792575E-06 -0.62777773E-06 -0.10178461E-05 -0.19315252E-05
  0.13048315E-05  0.19563253E-05 -0.19659975E-06 -0.26184568E-05  0.60780962E-06
  0.30978609E-04  0.41708165E-06 -0.25908266E-04  0.21078290E-04  0.18525196E-04
 -0.19353490E-04 -0.24067826E-05 -0.26094368E-04  0.72169611E-05  0.29389957E-06
  0.27963413E-05  0.20137660E-06 -0.17356927E-07  0.17150372E-05  0.98065785E-06
  0.56936104E-06 -0.10509588E-06 -0.43315465E-06 -0.14535870E-04 -0.17255666E-05
  0.28064469E-04  0.16548111E-04  0.14822848E-04 -0.24708635E-04  0.10348567E-06
  0.23413443E-04  0.12979977E-04 -0.11437276E-05  0.18925832E-05  0.14239152E-05
 -0.59129257E-05  0.57298984E-05  0.11580744E-05  0.11519808E-05 -0.26541924E-05
  0.40778814E-05 -0.95023437E-05 -0.14302022E-04  0.74674183E-05  0.14258825E-04
 -0.10717654E-06  0.16013663E-04 -0.15745182E-05 -0.12805937E-04  0.12473103E-04
 -0.26291779E-06  0.32331662E-05 -0.66007288E-05  0.47452720E-04 -0.15044568E-04
 -0.22321544E-04 -0.22049700E-05  0.35225299E-05  0.12958314E-05  0.77761417E-04
  0.52904324E-04 -0.57563364E-04 -0.25346858E-04 -0.29167885E-04  0.42016350E-04
  0.34302697E-04 -0.92966691E-04 -0.10977889E-04  0.28844793E-06  0.72252276E-06
  0.90754018E-06 -0.35555188E-05  0.31789402E-05 -0.74435105E-06  0.14757297E-05
 -0.13624315E-05 -0.95997778E-06  0.92778599E-06 -0.19011022E-05 -0.14934832E-05
 -0.19787142E-05  0.11941604E-05  0.11528570E-05 -0.15706958E-05  0.18417085E-06
 -0.15950642E-05 -0.54895973E-07  0.91989492E-06 -0.16707029E-06  0.11301890E-05
 -0.18972468E-05  0.13204740E-05  0.87045006E-07  0.36619433E-06 -0.11716798E-05
 -0.38659356E-06 -0.35066724E-06 -0.71900433E-06  0.38197250E-06  0.22974947E-06
  0.11820889E-05 -0.21953615E-06  0.56224502E-06 -0.63012867E-06  0.53890328E-06
  0.21013325E-05 -0.14432653E-05  0.27736326E-07  0.19657455E-05 -0.14898700E-05
 -0.23086579E-05 -0.47585163E-07 -0.13989460E-05  0.67531533E-05 -0.39077023E-05
  0.17308481E-04  0.11986713E-04  0.10858154E-05 -0.28085303E-04 -0.94035620E-05
 -0.34535652E-04 -0.29036859E-04 -0.13994704E-05  0.72248540E-07  0.62020110E-06
 -0.12988330E-05  0.65808033E-06  0.64996596E-06  0.41631937E-06  0.63175015E-07
  0.93348244E-06 -0.22540265E-04  0.24575967E-05 -0.15641952E-04 -0.32914126E-04
  0.63996652E-05 -0.89651018E-05 -0.47553573E-07 -0.45504471E-05  0.62308771E-05

 -0.50718653E-06  0.20101349E-05  0.43649558E-06  0.95385108E-07 -0.17719934E-05
  0.88347961E-08  0.41292262E-06 -0.26844140E-06  0.48370267E-06 -0.19331894E-05
  0.59647180E-06 -0.19474756E-05 -0.10414325E-05  0.61724629E-05 -0.48902615E-05
  0.88887680E-06 -0.12282107E-05 -0.22211047E-05 -0.99852718E-05 -0.63380482E-05
  0.98761978E-05  0.33500958E-04 -0.78337925E-05 -0.31827246E-04 -0.31779267E-04
 -0.25045803E-05 -0.43037066E-04 -0.68199865E-06 -0.26110493E-05 -0.49828263E-06
  0.10772690E-05 -0.59411673E-05  0.44308546E-05  0.12378239E-05  0.10092077E-05
  0.17244517E-05  0.10758559E-04  0.12915795E-04  0.74139386E-05  0.14859277E-05
  0.13714268E-05  0.80120768E-05 -0.24666919E-04 -0.72259235E-05 -0.15403804E-04
  0.10962349E-05  0.35464144E-05 -0.12489742E-05  0.63867669E-07 -0.45728182E-05
  0.27794273E-05 -0.10533492E-05 -0.13679932E-05 -0.44634934E-06 -0.46265004E-06
 -0.39024131E-06 -0.10611563E-05  0.40058061E-06  0.27157898E-05  0.11080551E-05
 -0.63461914E-07 -0.10619650E-05 -0.21250732E-05  0.89964256E-07 -0.17555862E-05
 -0.38560308E-06  0.25077556E-05 -0.16440067E-05 -0.85150432E-06  0.13526665E-05
  0.14345542E-06  0.27391765E-06 -0.13027327E-06  0.14318050E-05  0.26981663E-06
 -0.89258727E-06  0.47725151E-05 -0.19593002E-05 -0.92722650E-09 -0.43288710E-06
  0.19434928E-07 -0.35350818E-05  0.78110617E-05  0.35792965E-05  0.23831180E-05
 -0.39958593E-05  0.17290097E-05  0.26616123E-05  0.10972787E-05 -0.31519726E-05
 -0.11743933E-04 -0.11209588E-04  0.48800070E-05 -0.30134167E-04 -0.22161930E-05
  0.42295097E-04  0.73662867E-05  0.16679451E-04 -0.27423927E-04  0.80524963E-06
 -0.44261820E-05 -0.14060218E-06  0.18234983E-05 -0.99014571E-05  0.34679186E-05
  0.21425090E-05 -0.47326335E-06  0.13086465E-05  0.99250904E-05 -0.14918283E-05
 -0.14780021E-04  0.19446939E-04 -0.11094708E-04  0.19588699E-04 -0.24767544E-04
 -0.89554750E-05 -0.34879800E-04 -0.25271146E-05 -0.39595575E-06 -0.36189074E-05
  0.11856285E-05  0.86119139E-05 -0.86668666E-05 -0.43752477E-07  0.20898322E-05
  0.10222840E-05 -0.61468740E-05 -0.30562144E-04  0.22284273E-04  0.21294875E-04
 -0.30780948E-04  0.21995043E-04  0.27256711E-05 -0.48687273E-05  0.23825337E-04
  0.27967927E-05  0.27704092E-05 -0.76632405E-05 -0.15044568E-04  0.73076984E-04
 -0.19004397E-04  0.16862465E-05  0.23642059E-05  0.66766914E-06  0.15870995E-04
  0.25185537E-04 -0.59153857E-04 -0.21188283E-04 -0.59097805E-04  0.41050372E-04
  0.31521639E-04 -0.25683850E-04 -0.10944540E-03  0.46114952E-05  0.42475525E-05
 -0.20488871E-05  0.31437495E-05 -0.69283730E-05  0.43902191E-05 -0.90965526E-05
  0.28971276E-05  0.49102602E-05 -0.10266493E-05  0.18826091E-05 -0.11118094E-05
  0.18936751E-05 -0.85423145E-05  0.11119291E-05 -0.34851489E-06 -0.84094741E-06
  0.70584496E-06 -0.11167704E-06  0.34008345E-06  0.14934868E-05  0.48534276E-06
  0.16126666E-05 -0.12233578E-05 -0.19195790E-05  0.23085342E-06 -0.53337348E-06
 -0.37827362E-06  0.15445012E-06  0.43944718E-06  0.20404234E-06 -0.47082856E-05
  0.63634933E-06  0.88995513E-06  0.50085594E-06 -0.16545452E-06 -0.10732779E-05
 -0.60936764E-05  0.30504287E-05  0.14047144E-05 -0.64371420E-05  0.28413115E-05
 -0.20353303E-05  0.60868058E-07 -0.28724772E-06 -0.33987456E-05  0.43848517E-05
 -0.72164142E-04 -0.58390152E-05 -0.53863416E-04  0.64165783E-04 -0.10992859E-04
 -0.10056936E-04  0.12299941E-04 -0.12476353E-05 -0.43206532E-06 -0.43570602E-06
 -0.10116260E-05 -0.12394554E-05  0.15395556E-05 -0.23233732E-05 -0.73561395E-06
  0.24028593E-06  0.13131068E-04 -0.35747030E-04  0.22393511E-04  0.35355852E-04
 -0.33338422E-04  0.12531048E-04 -0.11589668E-04 -0.15750340E-04 -0.11509583E-04

  0.45078247E-06  0.16130657E-05 -0.18632799E-05 -0.36017764E-06  0.24958015E-05
  0.77272551E-06 -0.88583985E-06 -0.15191652E-05  0.45458147E-06  0.11739955E-05
  0.22864647E-06  0.14030189E-05  0.64100769E-06 -0.14295322E-05  0.58363125E-05
 -0.12379580E-05  0.11870990E-06  0.13912436E-05  0.42460959E-05  0.23949083E-04
  0.37198277E-05  0.12820819E-03 -0.74828928E-04 -0.27611139E-04 -0.29023159E-04
  0.94751107E-05  0.17649903E-04  0.16278839E-05  0.18116950E-05  0.46102647E-06
  0.82089443E-06  0.35580843E-05 -0.48163401E-05  0.81482106E-06 -0.41155337E-06
 -0.26313712E-05  0.19720509E-05  0.16535510E-04 -0.60313450E-05  0.77960497E-05
  0.53452526E-04 -0.12995859E-04  0.32017864E-05  0.13341081E-04  0.25985110E-04
 -0.98094935E-06 -0.11826752E-05  0.30089810E-06 -0.17396844E-05  0.23450380E-07
  0.40907140E-05 -0.55027906E-06  0.48174682E-06 -0.13705829E-06  0.99912690E-06
  0.77705029E-08  0.65814637E-07  0.33503103E-05  0.70234589E-06 -0.23709322E-05
  0.80573840E-06  0.26016944E-05 -0.46542206E-07 -0.51012134E-07 -0.20324916E-06
  0.62165636E-06 -0.23478961E-06  0.54547160E-06  0.26777377E-06 -0.55469974E-07
 -0.18910857E-05 -0.14371548E-05 -0.51607289E-06  0.57756570E-06  0.22039722E-05
  0.22489065E-05 -0.28854520E-05  0.32819749E-05  0.25336475E-06 -0.94324338E-06
 -0.10026063E-05  0.24822945E-05 -0.18875941E-06 -0.56758542E-06  0.10503150E-05
  0.10175525E-05 -0.98102453E-05 -0.47845501E-06 -0.24532821E-06  0.14154903E-05
 -0.31759277E-04 -0.73469858E-05 -0.32420402E-05 -0.19906267E-05  0.25884971E-04
 -0.47801236E-04 -0.11505178E-05  0.26284431E-04  0.28458701E-05 -0.12604592E-05
 -0.41674883E-05 -0.17604908E-05  0.11610307E-06  0.54417770E-05 -0.57320630E-05
 -0.17696226E-05 -0.79885395E-06  0.70278979E-06  0.20013134E-04 -0.16216480E-04
 -0.71583260E-04  0.50148835E-04 -0.64996706E-05 -0.17372639E-04  0.10897700E-04
 -0.31654602E-04 -0.33631692E-04  0.11771728E-05 -0.43083358E-05 -0.25998633E-05
  0.53767596E-05 -0.95676433E-05  0.32448200E-05  0.99114820E-06  0.10181430E-05
 -0.70850665E-05  0.11351266E-04 -0.79683818E-05 -0.22100870E-04  0.27822504E-04
 -0.60757475E-04 -0.89132978E-06  0.10473958E-04 -0.13894184E-04 -0.37098376E-04
  0.66534745E-06 -0.23339421E-05  0.90306312E-05 -0.22321544E-04 -0.19004397E-04
  0.68588666E-04 -0.64312969E-06 -0.10211258E-05  0.11387153E-06 -0.90146221E-04
 -0.71612913E-04  0.79870166E-04  0.70824211E-05  0.26223086E-04  0.26068848E-04
 -0.68747009E-04  0.74893384E-04  0.74263182E-04 -0.19076682E-05 -0.45195582E-05
 -0.20533881E-05  0.34762402E-06  0.42267596E-05 -0.31280986E-05  0.38167092E-05
 -0.24001711E-05 -0.28162527E-06 -0.85466234E-06  0.19298501E-06  0.18563171E-05
  0.20306975E-05  0.28588545E-05 -0.20286304E-05  0.14311758E-05  0.99113851E-07
  0.19808156E-05  0.27620253E-06 -0.82116073E-06 -0.58218038E-06  0.59713811E-06
  0.31536395E-05 -0.30263561E-05  0.56263895E-06  0.96068054E-07  0.41377444E-05
  0.43028826E-06  0.14085693E-05  0.16736187E-05  0.14718113E-05  0.13431940E-05
 -0.17160575E-06 -0.51003222E-06  0.42634137E-06  0.47464473E-06  0.15118050E-05
  0.19240569E-05  0.73641464E-06 -0.15804726E-05  0.61157160E-05  0.73616929E-06
  0.31070482E-05  0.36045972E-06  0.25495830E-05 -0.93402942E-05  0.18327761E-04
  0.49795267E-04  0.15375424E-04  0.45659025E-04 -0.40940519E-04  0.79908032E-05
  0.15054110E-04 -0.12896399E-05  0.19570269E-05  0.95055078E-06  0.90669359E-06
  0.18521726E-05  0.70091576E-06 -0.51015010E-07  0.89252141E-06  0.18248493E-05
 -0.17086531E-05  0.26218185E-04  0.20974749E-04  0.27214538E-04  0.66517762E-05
  0.15665093E-04  0.18673109E-04  0.95776848E-05  0.11993656E-05 -0.21955123E-04

 -0.75105601E-06 -0.96146001E-06 -0.13840326E-06 -0.33345221E-06  0.84645935E-07
 -0.90218679E-06 -0.18451267E-05 -0.36400136E-06 -0.52285061E-06 -0.65271874E-06
  0.10730624E-05 -0.44922955E-06 -0.39860007E-06 -0.24098846E-06  0.12195626E-05
  0.13431483E-05 -0.56923421E-06 -0.40508397E-06 -0.10547694E-04  0.30377592E-05
  0.51773202E-05  0.40753860E-04 -0.10863203E-04 -0.66019143E-05 -0.28611585E-04
  0.11431349E-04  0.26293384E-06  0.53269759E-06  0.67924687E-06  0.11836901E-05
  0.98761493E-06  0.15279086E-05 -0.86721009E-06 -0.11297765E-05 -0.66237135E-06
  0.72913115E-07 -0.48446978E-05 -0.41014408E-05 -0.17276554E-04  0.16749357E-04
  0.20048822E-04 -0.91132869E-05  0.14509644E-04  0.31801772E-05  0.52462587E-05
  0.21797192E-05  0.76805062E-06  0.46337543E-06  0.80017038E-06  0.55077199E-06
 -0.79536057E-06 -0.10024614E-05 -0.64066457E-06  0.83362590E-06 -0.24146882E-06
 -0.78159892E-06  0.75958548E-06 -0.65765918E-07 -0.85357170E-07 -0.13612804E-05
 -0.95891955E-06  0.70658897E-06  0.37072999E-06  0.51168943E-06 -0.11675637E-05
  0.44228722E-06 -0.71384977E-06 -0.52907997E-06  0.12823956E-05 -0.21473150E-06
 -0.45698157E-06 -0.38382566E-06 -0.19935994E-05  0.23307463E-06  0.51426886E-06
 -0.26966935E-06  0.13804330E-05  0.31142412E-06 -0.19566577E-05  0.67320842E-06
  0.19201717E-05  0.14171003E-05 -0.21040914E-05 -0.58788173E-06 -0.11970144E-05
  0.48630459E-05 -0.19881910E-05  0.97762880E-06 -0.76643177E-06 -0.12305303E-05
 -0.69014121E-05 -0.70606558E-05 -0.17103006E-06  0.11595164E-04 -0.75253271E-06
 -0.23287769E-04  0.14477373E-04 -0.30169932E-05 -0.14471689E-04 -0.25172050E-05
 -0.15699200E-05 -0.10903693E-05 -0.92476539E-06 -0.32255730E-05  0.37294432E-06
 -0.10199662E-05 -0.48190469E-06 -0.85662215E-07 -0.13475401E-04 -0.88821365E-05
 -0.43354477E-05  0.30745868E-04  0.20629442E-05 -0.64201250E-06  0.29187104E-05
  0.27536685E-04 -0.65313508E-05  0.23003030E-05 -0.36489181E-06  0.49269453E-06
 -0.19078670E-06  0.17836593E-05 -0.21724246E-05 -0.17030406E-06  0.22505292E-05
 -0.17676938E-05 -0.17090638E-04 -0.17730318E-04 -0.13527545E-05 -0.25051006E-05
  0.17970629E-05  0.18733900E-04 -0.31250409E-04  0.12460958E-04 -0.13437599E-05
 -0.15363074E-06 -0.80747121E-06 -0.63830073E-06 -0.22049700E-05  0.16862465E-05
 -0.64312969E-06  0.27784225E-04 -0.17519421E-05  0.57556868E-06  0.14053568E-04
  0.23449592E-04  0.26259355E-04  0.13330864E-04  0.21514476E-04 -0.39318629E-04
 -0.66754636E-05  0.64767724E-06 -0.34105410E-04  0.45030131E-06  0.39642605E-05
 -0.21685788E-05  0.22537085E-05 -0.61739553E-05  0.40265727E-05  0.67340143E-06
  0.14092567E-05  0.21500748E-05 -0.62203236E-06  0.16584177E-05 -0.20397465E-05
  0.13029699E-05 -0.16777343E-05  0.87415435E-07 -0.16459827E-05 -0.70225840E-07
 -0.20453064E-05  0.62880540E-06 -0.60034526E-06  0.85124859E-06 -0.29628645E-06
  0.16942453E-05 -0.43068448E-06 -0.60455229E-06  0.63112989E-07 -0.45045348E-06
 -0.75685726E-06 -0.15792065E-05  0.94895348E-06 -0.64239955E-06  0.94559546E-06
  0.22375657E-06 -0.12520802E-05 -0.52359571E-06 -0.49952535E-06  0.12120590E-05
  0.12483020E-05  0.23849090E-05 -0.69267563E-06  0.10217661E-05  0.10617846E-06
  0.72512416E-07 -0.56627270E-06  0.10734839E-05 -0.53141510E-05  0.14976532E-04
  0.62158685E-05 -0.69992971E-05  0.16341532E-04  0.85638905E-04  0.80693976E-06
 -0.77775273E-05  0.19916998E-04 -0.18437199E-06 -0.10747033E-05  0.35875400E-06
  0.29674906E-06  0.14690713E-05 -0.66700283E-06 -0.47195017E-06  0.24426276E-06
 -0.10740343E-05 -0.55165902E-05 -0.13560143E-04 -0.19478546E-05 -0.11240380E-04
  0.12977097E-04 -0.12563725E-04  0.54798967E-05 -0.91612976E-05  0.20502171E-05

 -0.15877202E-05 -0.10843676E-05 -0.41237100E-06  0.97858451E-06 -0.13197211E-05
 -0.11581398E-05 -0.53696358E-06 -0.56750591E-06 -0.36697990E-06  0.30706970E-06
  0.32122183E-06  0.35312974E-05  0.22395273E-06 -0.40689968E-06 -0.38429975E-06
  0.77368488E-06  0.11580389E-05 -0.15084561E-05 -0.57333703E-05  0.71501022E-05
 -0.95174254E-05 -0.53246496E-04  0.70336862E-05  0.10488590E-04  0.17174060E-05
  0.67284158E-05 -0.16723666E-04 -0.36262511E-07 -0.12697854E-06  0.13159602E-05
  0.52799768E-07 -0.12895319E-05  0.18819144E-05 -0.42106060E-07 -0.22749221E-05
  0.36785069E-06  0.62532556E-05  0.51748594E-05  0.17794107E-04  0.16386417E-04
 -0.24046611E-04  0.64163806E-06 -0.90572246E-06 -0.11792884E-04 -0.16314217E-04
 -0.74718860E-06 -0.12867458E-05 -0.16635152E-05 -0.13113613E-05  0.30890120E-06
  0.20224319E-06  0.34696668E-06 -0.14964617E-05 -0.69004468E-06 -0.37813324E-06
 -0.49292366E-06  0.96182577E-06 -0.21788774E-06 -0.34318639E-06  0.19355644E-05
 -0.63559235E-06 -0.44879863E-06 -0.72024596E-07  0.17161203E-05  0.90979403E-06
  0.13569962E-05 -0.25880063E-06  0.32919519E-06 -0.14675081E-05 -0.64736775E-06
 -0.46994457E-06  0.16168705E-06  0.11975342E-05 -0.82650394E-06  0.15819907E-05
  0.32736645E-06 -0.22512855E-05 -0.15621036E-05 -0.72511684E-07  0.42096422E-06
 -0.25377732E-07 -0.12555992E-05 -0.60719241E-06  0.42675896E-06 -0.61513376E-06
 -0.81023400E-06  0.36021773E-06 -0.21797060E-06 -0.42218945E-05  0.46821402E-06
  0.80292926E-05  0.41521833E-05 -0.21784321E-04 -0.85668364E-05  0.40098825E-05
  0.48806981E-04  0.93216113E-05 -0.17522641E-04  0.27692877E-05 -0.45020535E-06
  0.18220215E-05  0.19297073E-05 -0.67637808E-06  0.18427325E-05 -0.15103546E-05
  0.96486701E-06  0.11487928E-05 -0.21038184E-05 -0.88562559E-05  0.71522720E-05
  0.17505819E-04 -0.37235735E-04  0.18410183E-04 -0.29266886E-04  0.62907669E-05
  0.43402046E-04  0.11704322E-04 -0.20113738E-05 -0.41139879E-06  0.30949892E-07
 -0.28686967E-05  0.17823710E-05  0.10258488E-05  0.41168104E-05 -0.13133365E-05
 -0.11277635E-05  0.36760258E-05 -0.33538002E-04 -0.63370242E-05  0.54885107E-05
 -0.32823620E-04  0.99114254E-05  0.10242302E-04 -0.50092603E-05  0.16598592E-04
  0.63699593E-05  0.58736646E-06 -0.41396333E-05  0.35225299E-05  0.23642059E-05
 -0.10211258E-05 -0.17519421E-05  0.30005911E-04 -0.31819943E-06  0.22372200E-05
  0.65777459E-04 -0.10121340E-03 -0.87608615E-04 -0.33678068E-04  0.73935683E-04
 -0.11582142E-04  0.15755625E-04 -0.83610698E-04 -0.11064770E-06 -0.12790069E-05
  0.13493860E-05 -0.90074636E-06  0.27981262E-05 -0.36401523E-05  0.11274947E-06
 -0.32711191E-05  0.21910865E-05 -0.11084272E-06 -0.10491018E-05 -0.12050543E-05
 -0.12577213E-05 -0.10009288E-06 -0.81025309E-07 -0.86714636E-06 -0.38597552E-06
  0.11020723E-05  0.99460361E-06 -0.55141137E-06  0.21264953E-06  0.13146874E-05
 -0.12698236E-05  0.41561798E-07  0.51301071E-06 -0.36887853E-06  0.70388523E-06
 -0.11705811E-05  0.61441609E-06  0.35324516E-07  0.11906890E-05  0.84513919E-07
  0.52866229E-06 -0.84583165E-06  0.21563308E-06 -0.10716603E-05 -0.62836109E-06
 -0.19033556E-05  0.48663147E-06  0.32696777E-06 -0.19488853E-06 -0.78564935E-06
 -0.11690605E-05 -0.96979036E-06 -0.22174313E-05  0.77929443E-05 -0.19746912E-04
 -0.13995130E-04 -0.15259581E-04  0.14205471E-04 -0.64776950E-04 -0.96517284E-05
  0.13905234E-04  0.15861803E-06 -0.56353451E-06  0.28249994E-06 -0.40290896E-06
  0.46087947E-06 -0.20177770E-05  0.56299762E-06 -0.65537807E-06 -0.72336246E-06
  0.89491730E-06  0.65287808E-07 -0.48359656E-05  0.13278828E-04 -0.46587788E-05
 -0.54730310E-05  0.38335219E-05  0.90422615E-06 -0.10039948E-04  0.16715093E-04

  0.66702239E-06 -0.67685455E-06 -0.35659605E-05 -0.41481553E-06  0.37246797E-06
 -0.21709447E-05 -0.31491484E-06  0.11616191E-06  0.93569665E-07 -0.50373430E-06
 -0.13999821E-05 -0.21114524E-05  0.48033940E-06 -0.43891277E-05 -0.18193169E-07
 -0.21046802E-06  0.55362406E-06  0.10526512E-05 -0.28043883E-04 -0.32175568E-04
 -0.81682950E-05 -0.83871368E-06 -0.31032845E-07  0.11346161E-04  0.21370522E-04
  0.17145594E-04 -0.23632932E-04 -0.12478129E-05 -0.33029895E-05 -0.23737362E-05
 -0.15780507E-05  0.93003938E-06  0.56751797E-06  0.19123087E-06  0.89918005E-06
 -0.38632272E-05 -0.74775164E-05 -0.87637382E-05 -0.86860600E-05 -0.16220116E-04
 -0.50132604E-05 -0.15833428E-04 -0.17313778E-04 -0.66088113E-05 -0.49002332E-04
 -0.53589053E-07 -0.33014003E-05  0.16893230E-05  0.10016373E-05 -0.15964446E-05
 -0.31020995E-05  0.41931393E-06 -0.21935085E-05  0.18587622E-05  0.10804961E-05
  0.21518777E-05 -0.23695736E-05 -0.57810950E-06 -0.70209523E-06  0.14939603E-05
  0.40034933E-06 -0.18087992E-05 -0.14402494E-05  0.15269175E-05  0.15653798E-06
  0.15324160E-06  0.99129447E-06 -0.62967438E-06 -0.14378173E-05 -0.17173477E-06
  0.26946169E-06  0.54119488E-06 -0.22787772E-06  0.12017650E-05 -0.34120652E-05
 -0.21047809E-05  0.24848491E-05  0.31472588E-05  0.33657933E-06 -0.86820374E-06
 -0.39461941E-05 -0.13748299E-05 -0.27338327E-05  0.13547822E-05  0.67702626E-06
 -0.21473288E-05 -0.11140114E-05  0.14344000E-05  0.10416929E-05 -0.10889228E-05
  0.41292685E-05 -0.19209761E-04 -0.91865415E-06  0.10919682E-05 -0.41912447E-06
 -0.10604827E-04 -0.10077402E-04 -0.13194854E-04  0.32247997E-05  0.10681203E-06
  0.27996168E-06 -0.19034147E-05  0.10283103E-06 -0.60766150E-05  0.99965242E-06
 -0.14132698E-05 -0.22286719E-05 -0.21638101E-05 -0.23598400E-04 -0.46640761E-05
  0.27859885E-04 -0.27561922E-04  0.16419619E-04  0.36637314E-04 -0.14056841E-04
 -0.49974330E-05 -0.18621168E-04 -0.24232557E-05 -0.51484591E-05 -0.39829781E-05
  0.36130560E-05  0.20958347E-05 -0.14371201E-04 -0.64224314E-06 -0.55597818E-06
 -0.11754600E-04 -0.17317921E-04 -0.38193752E-04 -0.19081347E-04  0.38396313E-04
 -0.44755559E-04  0.85754129E-04 -0.38172628E-04 -0.15777644E-04 -0.85149742E-05
 -0.20087294E-06  0.39286306E-06 -0.48719892E-05  0.12958314E-05  0.66766914E-06
  0.11387153E-06  0.57556868E-06 -0.31819943E-06  0.47487922E-04  0.34952968E-04
 -0.51303965E-04 -0.47557081E-04 -0.26777717E-05 -0.15885287E-03  0.10585728E-03
 -0.37605544E-04 -0.54714098E-04  0.38592627E-04 -0.13527301E-05 -0.38376709E-06
 -0.11197776E-05 -0.12075922E-05  0.72590222E-05 -0.26623310E-05  0.25864058E-05
  0.39883480E-05  0.36509545E-05 -0.14858041E-05  0.16744215E-05  0.39122622E-06
  0.63656232E-06 -0.96146742E-06 -0.26309034E-05 -0.64622412E-06  0.14324900E-05
 -0.42237721E-05  0.14112700E-06 -0.50058738E-08 -0.73502349E-06  0.72672083E-06
 -0.14981160E-05 -0.78713513E-06 -0.83542625E-08  0.36242301E-06 -0.21370015E-05
  0.10930881E-05  0.16599782E-06 -0.81939394E-06  0.31427040E-06 -0.10906438E-05
 -0.19859585E-05 -0.13188461E-05  0.57182401E-06  0.83713455E-06  0.32474577E-05
 -0.21278055E-05  0.40562757E-06  0.48607150E-06 -0.24525162E-05  0.12352133E-05
  0.69302735E-06  0.18377733E-06 -0.98217963E-06 -0.16935263E-04  0.28734817E-05
 -0.69583932E-05 -0.25374773E-04  0.24111270E-05 -0.32214271E-04  0.43470988E-05
  0.33478627E-04  0.10792818E-04  0.42917819E-06  0.14212607E-05  0.11538663E-05
 -0.44108269E-06 -0.41990240E-06 -0.15191582E-06 -0.13677015E-05 -0.42283927E-06
 -0.29260386E-06 -0.19309821E-04 -0.42467817E-05 -0.26821261E-04 -0.43169688E-04
 -0.35030329E-05  0.31209048E-04  0.29215672E-04 -0.73777239E-05  0.23844529E-04

 -0.17195694E-04 -0.17475759E-04  0.88871719E-05 -0.68452093E-05 -0.83982477E-05
 -0.35545398E-05  0.73616965E-05  0.11728635E-04 -0.17129230E-05 -0.10488034E-04
  0.14453926E-04  0.43186854E-05 -0.10300060E-04 -0.32155583E-05  0.13353066E-04
  0.12752323E-04  0.41927681E-05  0.27358085E-05  0.12648613E-03  0.18549238E-03
  0.90306970E-04 -0.18715508E-03  0.16443547E-03  0.13654397E-03  0.54427060E-04
  0.90810846E-04 -0.16808708E-04 -0.21754837E-05 -0.26953603E-05  0.17984510E-04
 -0.45395520E-05 -0.74272609E-05 -0.78842264E-05 -0.12453955E-04 -0.30141419E-05
 -0.80550294E-05  0.11117913E-03 -0.95479459E-04 -0.31184045E-04 -0.10775901E-03
 -0.14895897E-03 -0.49900740E-04  0.68285427E-04 -0.14519920E-03 -0.23190534E-03
  0.83097403E-05  0.11912841E-04 -0.77212090E-05  0.40193484E-05  0.18460788E-05
 -0.13320852E-04  0.34809978E-05 -0.67051151E-05  0.45845285E-05 -0.91235541E-05
  0.42573442E-05 -0.35492000E-05 -0.54940440E-05  0.75897813E-05 -0.15515587E-04
 -0.53746724E-06 -0.78065444E-06 -0.37320323E-05 -0.22773712E-05 -0.55839381E-05
 -0.35439213E-05  0.14543384E-04 -0.68764100E-06  0.46796462E-05 -0.47385024E-05
  0.51393822E-05 -0.17888188E-05 -0.19808565E-06  0.15533463E-04  0.37196600E-05
  0.25357986E-05 -0.47591953E-05  0.99021675E-05 -0.17119818E-05 -0.18602194E-05
  0.65305846E-05 -0.15005241E-04 -0.11394515E-04  0.73198190E-05 -0.22754551E-04
  0.14285505E-04  0.76034570E-05  0.17557601E-04 -0.45015767E-05 -0.31017002E-05
 -0.34213990E-04  0.88159525E-04 -0.22316632E-03 -0.16145736E-03  0.84092249E-04
  0.11076018E-03  0.75044054E-04 -0.22904794E-03 -0.20265564E-04  0.26546222E-04
  0.35515650E-04  0.12401118E-04  0.17354481E-05 -0.68571674E-05 -0.30115129E-05
 -0.39394693E-05 -0.54350008E-05 -0.22482470E-04  0.65152053E-05  0.18830761E-03
  0.51165425E-03 -0.71727592E-03  0.15326020E-03  0.25615142E-04 -0.21547692E-04
  0.71608374E-04  0.79725714E-04 -0.10631000E-04 -0.16322208E-04 -0.92980344E-05
  0.86813443E-05  0.19672435E-04 -0.31991390E-04  0.97708669E-05 -0.12528984E-04
  0.31842272E-05  0.12090550E-03 -0.29057577E-03  0.14604059E-03  0.99883382E-04
 -0.12808649E-03  0.18923368E-03  0.70115434E-04  0.16628521E-05  0.17986329E-03
 -0.12303368E-04  0.23716541E-04 -0.65084733E-04  0.77761417E-04  0.15870995E-04
 -0.90146221E-04  0.14053568E-04  0.22372200E-05  0.34952968E-04  0.15576437E-02
  0.33152405E-03 -0.39013887E-03 -0.16236818E-05 -0.30994235E-03  0.14737277E-03
  0.50707576E-04 -0.23332969E-03  0.16489456E-04  0.96696478E-05  0.13199199E-04
 -0.19326733E-06 -0.38575165E-04  0.11117572E-04  0.10951843E-04 -0.54057368E-06
  0.75137081E-05  0.10374344E-05 -0.46301211E-05 -0.11472842E-04 -0.19407130E-04
  0.48043779E-06 -0.29927784E-05 -0.41400760E-05 -0.47953511E-05  0.50776997E-05
 -0.78784635E-05 -0.72797342E-05  0.36273081E-05  0.57659797E-07 -0.34776252E-05
 -0.74194781E-05  0.42366295E-05  0.22742420E-05 -0.60957602E-05 -0.11804517E-04
 -0.18740550E-04  0.12242251E-05 -0.40852686E-05 -0.62550841E-05 -0.52747836E-05
  0.55062044E-05 -0.58457380E-05  0.65451561E-05  0.83801328E-05  0.17592808E-04
  0.10236373E-04  0.26036238E-06 -0.50264292E-05 -0.55876542E-05  0.10947232E-05
 -0.45458436E-06  0.10547148E-06 -0.56271076E-05 -0.58329058E-07  0.15544875E-04
  0.16599945E-03 -0.14400131E-04 -0.15073659E-03  0.21305763E-03 -0.78385928E-04
 -0.21533094E-03 -0.11708756E-03 -0.12109583E-04 -0.91735231E-06  0.58088666E-05
  0.94473823E-06 -0.21394556E-05 -0.33891284E-05 -0.37291824E-06 -0.51085350E-05
 -0.46918209E-06  0.10899114E-03 -0.39855504E-04 -0.25297754E-03 -0.42571582E-04
 -0.58964085E-05  0.11853240E-04 -0.91882642E-04  0.24316391E-04  0.26536889E-04

 -0.19542789E-04 -0.73409208E-05 -0.92698370E-05  0.18355886E-05  0.80489628E-05
  0.18031106E-05 -0.49045102E-05 -0.67663915E-05  0.65050656E-06  0.44236952E-05
  0.73486312E-05  0.14620037E-04 -0.68624988E-05  0.11839640E-05 -0.42902732E-06
  0.22862538E-04  0.13205301E-06 -0.30315750E-05 -0.88110812E-04 -0.92404264E-04
  0.85104333E-04 -0.32223487E-03 -0.41392752E-05  0.16086795E-03  0.19551773E-03
  0.23426799E-03 -0.38762370E-04 -0.44166621E-05  0.93448668E-05  0.56490883E-06
  0.44222244E-05 -0.34609745E-04  0.31336941E-04 -0.18815090E-04 -0.98556491E-05
 -0.10707233E-04  0.72055973E-04  0.74465176E-04 -0.73240994E-04  0.11146146E-03
 -0.67441280E-03  0.25119769E-03 -0.62632635E-04  0.10517421E-03  0.59466610E-05
  0.10872697E-05  0.32985477E-05 -0.11326150E-04  0.85488109E-06  0.15088194E-04
  0.89414438E-06  0.10741874E-04 -0.52037186E-05  0.56880779E-05  0.11670471E-04
  0.27730411E-05  0.14913536E-04 -0.17302562E-04  0.11301519E-04 -0.20140159E-06
 -0.49126940E-05 -0.20291508E-05 -0.16685400E-05  0.11472620E-04  0.89203411E-05
  0.17481633E-05 -0.16676748E-04  0.13969077E-04  0.98490805E-05 -0.11903641E-04
  0.95614972E-05 -0.88536673E-05  0.44155475E-05  0.19411105E-05  0.80530094E-05
  0.70967538E-05 -0.20741090E-04 -0.18710428E-04 -0.59052967E-05 -0.11129567E-05
  0.94030423E-05 -0.13139555E-05  0.81483870E-05  0.44627163E-05  0.30387970E-06
  0.45232320E-05  0.74786274E-05  0.12344772E-04 -0.21916534E-04 -0.35466529E-05
  0.73018964E-04  0.75069662E-04 -0.14338662E-03  0.50097543E-04  0.18941363E-03
 -0.87627388E-04 -0.14726859E-04 -0.94664000E-04 -0.49450885E-04  0.11818540E-04
  0.27356574E-04  0.85653220E-05 -0.54614547E-05  0.22111604E-04 -0.41212274E-06
 -0.70205756E-05  0.50052760E-05 -0.13893089E-04 -0.71910157E-04 -0.96872362E-04
  0.64376402E-05  0.94077883E-04  0.33470909E-03 -0.48407207E-03  0.33548438E-03
  0.43122367E-03  0.16067544E-03 -0.36634789E-05  0.30953315E-07 -0.76225470E-05
 -0.39871377E-04  0.61910165E-04  0.57958378E-05  0.47150154E-05 -0.16697192E-04
  0.11723546E-04 -0.12558510E-03 -0.82717165E-04 -0.59139098E-04  0.80444595E-04
  0.35631831E-03  0.10349837E-03 -0.12407097E-03  0.16475060E-05 -0.27256156E-04
  0.37793423E-04 -0.79566820E-05 -0.83871431E-04  0.52904324E-04  0.25185537E-04
 -0.71612913E-04  0.23449592E-04  0.65777459E-04 -0.51303965E-04  0.33152405E-03
  0.29186132E-02 -0.47438283E-03 -0.15122798E-03  0.97164860E-04  0.18993418E-03
  0.15358836E-03 -0.11077674E-03 -0.60313074E-03  0.11932246E-05  0.96231956E-05
  0.11037086E-04 -0.68072977E-05 -0.82527242E-05 -0.75252500E-05 -0.96591420E-05
 -0.79773041E-05  0.27996012E-04  0.52833167E-05 -0.32409368E-04 -0.17365207E-04
  0.12507592E-04  0.50020515E-05 -0.11143533E-04 -0.93646757E-05  0.48328705E-05
  0.25902498E-04  0.15903652E-04 -0.13655262E-04 -0.48149265E-06  0.16783532E-04
 -0.30764173E-04  0.29082737E-05  0.79027174E-05  0.22878393E-05  0.58405464E-05
 -0.10802133E-04 -0.16709733E-05 -0.61248812E-05 -0.33315704E-05 -0.70089048E-05
  0.16564907E-04  0.33166861E-05  0.81343479E-05 -0.20526608E-04 -0.23350574E-04
 -0.20236825E-05  0.64469287E-05 -0.14802408E-04  0.19934590E-04 -0.22415131E-04
 -0.21178017E-04 -0.95911400E-05 -0.42262179E-05  0.19170632E-03 -0.38994938E-03
 -0.12830233E-03  0.20834495E-04  0.16358071E-03 -0.22851300E-03 -0.20326600E-03
 -0.15379398E-03  0.18310401E-03 -0.31813266E-06 -0.98497416E-05  0.17529695E-05
  0.35682691E-05 -0.85421866E-05 -0.90103158E-05 -0.59061740E-05 -0.47331578E-05
  0.65312067E-05  0.13308867E-03  0.12484669E-03 -0.15642029E-03  0.28123098E-03
 -0.34775562E-03 -0.24939516E-03 -0.15808699E-03 -0.30125559E-04  0.53203007E-03

  0.44343175E-05 -0.15600166E-04 -0.10243066E-04  0.25343690E-05  0.14724748E-05
  0.40541498E-04  0.30002766E-05 -0.63474220E-05 -0.59461126E-05 -0.15112154E-04
  0.53859955E-05 -0.49131539E-04  0.30579760E-06  0.11607829E-04  0.29278199E-04
 -0.91347332E-05  0.32074177E-05  0.33348044E-04  0.25156554E-03  0.31558260E-05
  0.11059315E-03  0.74305418E-03 -0.73664793E-04 -0.13823803E-04 -0.21938786E-03
  0.18801251E-03  0.49734888E-04  0.17753564E-04  0.14373765E-05 -0.82007951E-06
  0.21498786E-05  0.16616647E-04 -0.40049386E-04 -0.48951874E-05 -0.16573835E-04
 -0.15686145E-04 -0.10129288E-03 -0.11628761E-04 -0.84667174E-04  0.12851350E-04
 -0.18713316E-04 -0.52319217E-03 -0.11028221E-03 -0.11063356E-03  0.29886845E-04
  0.36607530E-05  0.16224470E-05 -0.14344978E-05 -0.53014778E-05  0.19136639E-05
  0.10863976E-04  0.59569864E-05 -0.18436964E-05 -0.43411802E-05 -0.50477701E-05
 -0.76053139E-07 -0.38295511E-05  0.17955312E-04 -0.80933779E-05 -0.11556597E-06
 -0.15969902E-05 -0.34076441E-05  0.91723462E-05 -0.17354471E-04 -0.68717854E-05
 -0.15735302E-04  0.80932959E-05  0.14413428E-05  0.24127433E-05  0.44645458E-05
  0.11369482E-04  0.19045460E-05 -0.85122583E-05  0.90988908E-05 -0.18144009E-04
  0.10993731E-04  0.22544311E-05  0.10098397E-04 -0.14729060E-05  0.15050601E-04
  0.18534026E-05  0.35391986E-05 -0.11228035E-05 -0.63391734E-04 -0.12113878E-04
  0.33462148E-05  0.30763902E-04  0.49408461E-05 -0.44948661E-05  0.23669376E-04
 -0.80055779E-04 -0.14425732E-03  0.14217677E-03 -0.43102708E-04  0.27010830E-03
 -0.68600850E-03 -0.16183720E-03  0.17559788E-03  0.13173066E-03 -0.11819742E-04
 -0.27378667E-04 -0.38485236E-04 -0.17853698E-04  0.11981510E-04  0.36803130E-05
 -0.61520494E-05 -0.10464503E-04  0.29291820E-04  0.38887659E-03 -0.20958662E-03
 -0.32154870E-03  0.91338695E-03 -0.25032526E-03  0.37225109E-04  0.23926014E-04
 -0.46715092E-03 -0.13464014E-03  0.25826154E-04  0.37140720E-04  0.87412041E-05
  0.10419915E-04 -0.25143743E-04  0.48955356E-04 -0.18555498E-04  0.20124610E-04
  0.11218452E-04 -0.61355715E-04  0.49840403E-03  0.23771630E-03 -0.11251620E-03
  0.97635364E-04 -0.27420380E-03  0.20031313E-03  0.85683422E-04 -0.19847758E-03
 -0.55983055E-04 -0.52821789E-04  0.13898204E-03 -0.57563364E-04 -0.59153857E-04
  0.79870166E-04  0.26259355E-04 -0.10121340E-03 -0.47557081E-04 -0.39013887E-03
 -0.47438283E-03  0.30839779E-02  0.40182383E-03  0.58262595E-03 -0.43200910E-03
 -0.22449157E-04  0.35575975E-03  0.30951965E-03 -0.10296172E-04 -0.87391384E-05
 -0.13970060E-05  0.40044469E-05  0.66962577E-05 -0.54321567E-06  0.43262117E-05
 -0.92129615E-05 -0.17276100E-04 -0.13416076E-04  0.21349227E-05 -0.81657718E-05
  0.65526246E-05  0.17051657E-04  0.11233954E-04 -0.20693988E-05 -0.51706245E-05
 -0.93139959E-06 -0.13061213E-04 -0.36209372E-05 -0.65134338E-05 -0.77397902E-05
  0.14204064E-04  0.17814882E-05  0.20959213E-05 -0.16208389E-06  0.13317936E-04
  0.86186943E-05 -0.26487311E-05 -0.27419413E-05  0.50952976E-05  0.42669072E-05
 -0.91926816E-05  0.12027585E-04 -0.72800738E-06  0.23799290E-05  0.25441926E-04
  0.42742180E-04  0.20366587E-04  0.58244672E-06  0.12105210E-04 -0.66290225E-05
  0.21454607E-04  0.11245591E-04  0.45429219E-04 -0.26884097E-04  0.37886039E-03
  0.40308276E-03  0.13645985E-03 -0.17484060E-03  0.11851753E-02  0.11092847E-03
 -0.24487850E-03 -0.12253971E-05  0.13326631E-04 -0.99571363E-05  0.93865858E-05
 -0.10623509E-04  0.17549600E-04  0.23167211E-04  0.99568543E-05  0.10677554E-04
  0.78907852E-05 -0.46725960E-04  0.11600118E-04  0.13911889E-03  0.13890128E-03
  0.53880563E-04  0.29667969E-04 -0.66790507E-04  0.13738398E-03 -0.28113160E-03

 -0.10822769E-05  0.12983234E-04  0.17806388E-05  0.29044695E-04 -0.80670396E-06
 -0.18362670E-04 -0.69814840E-05  0.49815296E-05  0.15471883E-04  0.14831577E-04
 -0.21722605E-04  0.10036338E-05  0.97136066E-06 -0.90200355E-05  0.22454479E-04
 -0.60610341E-05  0.20170730E-05  0.54299285E-05 -0.45972905E-05  0.59278518E-04
  0.26129864E-04 -0.70948018E-03  0.14481697E-03  0.23057754E-03  0.16852669E-03
  0.34962797E-05  0.15684856E-03  0.36051696E-05  0.48149465E-05 -0.13856311E-05
  0.12288733E-04  0.87463539E-05 -0.18244057E-04  0.60890854E-05 -0.57630816E-05
 -0.10710841E-04 -0.15879999E-03  0.12374588E-03 -0.76438744E-04 -0.91650312E-04
  0.25755648E-03  0.54148851E-04  0.14910906E-03  0.19636058E-03  0.65703501E-04
 -0.11557446E-04 -0.36297384E-05  0.37439988E-05  0.10260900E-04  0.80341431E-05
 -0.66932610E-05  0.27430831E-05 -0.83903915E-05  0.51451452E-05  0.65703425E-05
  0.43930740E-06  0.82306558E-05 -0.21124927E-04  0.23239452E-04 -0.86412516E-05
  0.25556749E-05 -0.64302737E-05  0.36264370E-05 -0.19657763E-04 -0.15514747E-05
 -0.11392182E-05 -0.23163522E-04  0.58498064E-05  0.42593977E-05 -0.54003226E-05
 -0.85763006E-05  0.13000274E-05  0.67617837E-05  0.97258942E-05  0.44919490E-05
  0.26992701E-04 -0.11791860E-04  0.23030635E-05  0.17728271E-05  0.11339015E-04
 -0.43402242E-05 -0.11123855E-04  0.13614766E-05  0.14706627E-05  0.18841791E-04
 -0.11938646E-04 -0.46666542E-05  0.47343932E-05  0.17353434E-04 -0.57049194E-05
  0.61799135E-04 -0.23862107E-03  0.23113360E-04  0.30596606E-04 -0.16208957E-04
  0.12893217E-03 -0.12720673E-05  0.35867428E-04 -0.46149353E-04  0.32745320E-04
  0.20913228E-05 -0.48043282E-05 -0.15316670E-04 -0.11002014E-04  0.39408779E-05
 -0.70218394E-05 -0.12856186E-04  0.58393230E-05 -0.34576251E-04 -0.14681936E-03
  0.37440259E-04  0.28957393E-03 -0.46746879E-04 -0.24997068E-04 -0.49995487E-04
 -0.10115092E-03 -0.43446182E-04  0.15478928E-04  0.59868647E-05  0.55170471E-05
  0.11054858E-04  0.70616373E-05 -0.10012550E-04 -0.12819676E-05  0.18361710E-04
  0.12255470E-04 -0.11330862E-03  0.16394015E-03  0.49315676E-04 -0.30237805E-03
  0.27859543E-03 -0.71106487E-04 -0.72574727E-05  0.36970856E-04  0.70734445E-04
 -0.58838606E-04 -0.54747547E-05  0.49221832E-04 -0.25346858E-04 -0.21188283E-04
  0.70824211E-05  0.13330864E-04 -0.87608615E-04 -0.26777717E-05 -0.16236818E-05
 -0.15122798E-03  0.40182383E-03  0.28055369E-02 -0.12089432E-02 -0.15425738E-02
  0.20169885E-03 -0.46721158E-04  0.33599623E-03 -0.16696909E-04 -0.35161928E-05
 -0.12114144E-04 -0.39283144E-04  0.16143847E-04  0.21418980E-04  0.52464039E-05
  0.11547943E-06  0.11225077E-05  0.21244583E-05  0.74076764E-06  0.12569870E-04
 -0.31248722E-05 -0.44426174E-05  0.16266804E-05  0.30079546E-05  0.33110186E-05
 -0.39050496E-05  0.24865026E-05  0.21493516E-05  0.19024145E-05 -0.13952356E-04
  0.10066598E-04  0.14136349E-04  0.49557802E-05 -0.11920564E-05  0.26294569E-05
 -0.79423645E-05  0.81164246E-05 -0.11831340E-04 -0.12542417E-04  0.30546838E-05
 -0.12247522E-05 -0.15334041E-05 -0.66980011E-05  0.11559556E-05 -0.94988335E-05
 -0.49130918E-05 -0.63855183E-06 -0.95080466E-05 -0.67243570E-05  0.17429972E-04
  0.64677032E-05  0.11127409E-04 -0.19585290E-05  0.19640196E-04  0.61148369E-05
  0.57691742E-04 -0.41241924E-03  0.81623293E-04  0.15463609E-03  0.36030674E-04
  0.72332765E-06 -0.65011037E-04  0.14228908E-04 -0.41484754E-07 -0.89003417E-05
  0.40627183E-04 -0.16234100E-04 -0.69142681E-05  0.32315704E-05  0.81128306E-05
 -0.34613877E-05  0.66857405E-04  0.12459392E-03 -0.48521261E-04  0.56011162E-03
 -0.83759098E-04 -0.21553656E-03  0.67060753E-04 -0.20077116E-04  0.59340362E-04

 -0.10109873E-04 -0.12137662E-04  0.84446141E-05 -0.18734111E-04  0.11151962E-04
  0.28628324E-04 -0.63477020E-06 -0.94238120E-05 -0.26456287E-04 -0.27574567E-04
  0.75484552E-05 -0.16953125E-04  0.38396700E-05  0.35634553E-05  0.16573882E-04
 -0.39734856E-04 -0.30242675E-04  0.99676458E-05  0.22527632E-03 -0.38284296E-03
 -0.24146024E-03  0.22663241E-03  0.38860357E-03 -0.36172337E-04 -0.51598018E-04
 -0.54186341E-04 -0.12946515E-04 -0.60264863E-05 -0.12586518E-04  0.22736953E-04
  0.84852469E-05 -0.22792745E-04  0.10891840E-04  0.13280730E-04  0.20255618E-05
  0.21743072E-04  0.14704655E-04 -0.31157732E-03  0.15048377E-05  0.21799338E-03
 -0.53569096E-03 -0.11748336E-04 -0.19034904E-03  0.86822788E-04  0.18176975E-03
  0.16390392E-04  0.86713579E-05 -0.38589901E-05 -0.28210721E-05 -0.30234201E-04
  0.13379175E-04 -0.16273730E-05  0.62498541E-05 -0.30195464E-04 -0.30179723E-04
 -0.59902582E-05  0.71028663E-05  0.29208528E-04 -0.50212825E-04 -0.20120814E-05
  0.11155526E-04  0.10164082E-04 -0.11645933E-04 -0.16941451E-04  0.11870812E-04
 -0.54505240E-06  0.11221719E-04  0.28627145E-04  0.19926507E-05  0.12154526E-05
 -0.94207171E-06 -0.72808894E-06  0.65575321E-05 -0.51008806E-04 -0.14343725E-05
  0.89376437E-05 -0.11048119E-04  0.11182248E-05  0.84083350E-05 -0.68193292E-08
  0.50252099E-04  0.16164637E-04  0.72679369E-04 -0.20724470E-04 -0.10766920E-05
  0.58843106E-04 -0.17468380E-04 -0.78751238E-05 -0.20239706E-04  0.18865903E-04
 -0.21326040E-03  0.12097086E-02  0.28572713E-04  0.21936178E-03 -0.53287233E-03
 -0.67443169E-04  0.68149608E-04  0.62750858E-04  0.27420481E-04  0.22942429E-04
 -0.84434729E-04 -0.31135957E-04  0.12413984E-04  0.10590502E-03 -0.36726483E-04
  0.21483879E-04  0.51724962E-05  0.22785973E-04 -0.17670280E-04 -0.15063965E-03
 -0.63860674E-03  0.66664214E-03 -0.46907193E-03  0.60077456E-04  0.36311343E-03
 -0.10468368E-03 -0.17826795E-03  0.20272382E-05 -0.55621390E-04  0.14966764E-04
 -0.33754456E-05 -0.72180780E-04  0.84029409E-04 -0.25735018E-04 -0.28205823E-05
  0.98552623E-04 -0.65501960E-04  0.13274708E-05  0.24981220E-03  0.88062530E-04
 -0.10330966E-03 -0.32517354E-03  0.37784135E-03  0.14126409E-03  0.16989399E-05
 -0.37154219E-04 -0.68419193E-04  0.79041302E-04 -0.29167885E-04 -0.59097805E-04
  0.26223086E-04  0.21514476E-04 -0.33678068E-04 -0.15885287E-03 -0.30994235E-03
  0.97164860E-04  0.58262595E-03 -0.12089432E-02  0.78448046E-02 -0.17445706E-02
  0.31898597E-03  0.39892690E-03 -0.24031932E-03  0.15622247E-04  0.64957948E-05
  0.27923498E-04  0.22796814E-04 -0.83101084E-04  0.35503312E-04 -0.67555724E-05
  0.12168459E-04 -0.76149500E-05 -0.17876346E-04  0.32691631E-05  0.25714938E-05
 -0.96345674E-05  0.10199595E-03  0.52036894E-06  0.58914660E-05  0.17490105E-05
  0.12489194E-04  0.31953269E-05 -0.61495785E-05  0.12259602E-04 -0.54308078E-05
  0.62497306E-05  0.14317792E-04 -0.18351045E-04 -0.60049532E-05  0.10221448E-06
  0.14134307E-04 -0.68346473E-05  0.41420701E-05  0.29409584E-05 -0.33792672E-05
  0.11990281E-04  0.14587784E-04  0.38239068E-05 -0.14472312E-04  0.25595072E-04
  0.27903705E-04  0.38436644E-05 -0.59663928E-05  0.37434275E-04 -0.74916202E-05
  0.23742975E-04 -0.69465301E-05  0.64814228E-04  0.78804657E-05 -0.49902171E-04
 -0.77800733E-04  0.34432172E-03 -0.11522833E-03  0.93429142E-03  0.11875707E-03
  0.19479845E-03  0.35729164E-03 -0.73544205E-06  0.83735361E-05 -0.27773491E-05
 -0.15763138E-04  0.38695958E-04  0.76972792E-05 -0.85523798E-05 -0.18722121E-05
 -0.13219142E-04 -0.91809343E-04  0.14844088E-03  0.27162140E-03  0.22576832E-03
 -0.89655229E-04  0.12107116E-03 -0.48839709E-03  0.18751871E-03 -0.43897330E-03

  0.78957184E-05 -0.16350041E-04 -0.30476340E-04 -0.12339149E-04 -0.44031097E-05
  0.60588897E-04  0.36324769E-05  0.15224893E-05 -0.23153880E-04 -0.15012661E-04
 -0.25633415E-04 -0.36582396E-04  0.67955040E-05 -0.32031523E-05 -0.44370297E-04
  0.82430838E-05  0.88723633E-05 -0.11999015E-04 -0.42991780E-03 -0.44537412E-03
 -0.13434845E-03  0.21567487E-03  0.33257867E-03 -0.47934954E-03  0.28936660E-03
  0.11718895E-03 -0.19256961E-03  0.14530753E-05 -0.28816787E-05 -0.54532307E-04
 -0.15702680E-04  0.56728643E-05  0.20499605E-04  0.23863240E-05  0.12425702E-05
 -0.41847197E-05  0.10232654E-03 -0.10059855E-03  0.83538373E-04  0.56835071E-05
 -0.28485488E-03 -0.98550530E-04 -0.29063291E-03 -0.12682244E-03 -0.85242701E-04
  0.74419296E-05 -0.10561974E-04  0.17268651E-04 -0.94818226E-05 -0.75391251E-05
  0.85680094E-05  0.16502030E-05  0.10839344E-06 -0.22010015E-05  0.21873703E-05
  0.32668074E-05 -0.15201228E-04 -0.17387698E-06 -0.99301564E-05  0.82783212E-05
 -0.13962554E-05 -0.96817791E-05 -0.15439343E-04  0.31894677E-04  0.10881619E-04
 -0.15190746E-04  0.47598790E-05 -0.34296587E-05  0.70012197E-05  0.23345414E-05
  0.31607639E-04 -0.12815861E-04 -0.68604352E-05 -0.11259143E-04 -0.17373047E-04
 -0.30959871E-04  0.94968508E-05 -0.25250001E-04 -0.10701167E-05 -0.13530211E-04
  0.47356924E-05 -0.16489201E-04 -0.25827367E-04  0.10288239E-04 -0.13299054E-04
 -0.21295867E-04  0.33660723E-04 -0.11953989E-04 -0.18915465E-04 -0.70157811E-05
  0.16881043E-03 -0.71376053E-04 -0.39586539E-03 -0.38720378E-04  0.25309226E-03
 -0.84837420E-03  0.26436233E-05 -0.64340908E-04  0.41564619E-04 -0.18777069E-04
  0.17006374E-04 -0.41270124E-04 -0.20760381E-04  0.29592461E-05  0.18687093E-04
 -0.55512039E-05  0.13573960E-04 -0.67875664E-05  0.15843683E-04 -0.15927054E-04
  0.26900232E-04  0.20808400E-03  0.54943400E-04 -0.30804429E-03 -0.11338677E-03
 -0.14311963E-03  0.63673941E-04 -0.13943027E-04 -0.12781924E-04 -0.65313050E-04
  0.14021986E-05 -0.10430667E-04 -0.18891845E-04  0.56400968E-05  0.27454910E-05
 -0.49139560E-04  0.89490263E-04 -0.11931734E-03 -0.11309444E-03  0.12611536E-03
 -0.32667144E-03  0.62426804E-04  0.23291531E-04  0.10468992E-03 -0.16202795E-04
  0.95098227E-04  0.38554227E-04 -0.12483084E-03  0.42016350E-04  0.41050372E-04
  0.26068848E-04 -0.39318629E-04  0.73935683E-04  0.10585728E-03  0.14737277E-03
  0.18993418E-03 -0.43200910E-03 -0.15425738E-02 -0.17445706E-02  0.56333804E-02
 -0.53536002E-04 -0.38181160E-03 -0.54253364E-03  0.84261834E-05  0.98614316E-05
  0.19251316E-04  0.20804873E-04  0.18808370E-04 -0.23768207E-04 -0.39572309E-06
 -0.17844922E-04  0.75920150E-05 -0.43300450E-05 -0.82322006E-05 -0.23225032E-04
 -0.76337443E-06 -0.36258837E-05 -0.25277596E-04  0.21784226E-05  0.10685231E-04
  0.55719512E-05  0.74567287E-05  0.51848460E-05 -0.14877006E-04  0.25588977E-04
 -0.16447023E-04 -0.47433116E-04  0.17755996E-05  0.11897610E-05 -0.12028868E-04
 -0.63668397E-06 -0.64506082E-05 -0.12951465E-04  0.10497343E-04  0.26929918E-05
  0.10935898E-04 -0.17213179E-05  0.67557770E-05 -0.89074956E-05 -0.29835141E-06
  0.12995557E-04  0.29108008E-05  0.21353036E-04  0.86133043E-05 -0.59637066E-04
 -0.10977332E-04  0.88243095E-06 -0.12137890E-04  0.22966076E-04 -0.57935899E-04
 -0.89207909E-04 -0.10793636E-03  0.86873100E-04 -0.33977438E-03  0.68654219E-04
  0.20065381E-03 -0.13216236E-03  0.76963415E-06 -0.59293920E-05  0.33091935E-04
 -0.16671658E-04  0.68926450E-05 -0.16061625E-04 -0.47545928E-05 -0.84131079E-05
  0.47618533E-05 -0.11856552E-03 -0.13930889E-03 -0.64252449E-04 -0.44343369E-03
  0.23293985E-03  0.39219112E-03  0.40414898E-04  0.20804568E-03 -0.13854106E-04

  0.74898753E-05  0.10283681E-04 -0.10828151E-05  0.58699824E-05  0.11993851E-04
  0.81579784E-05 -0.49538600E-06  0.34542786E-05  0.39823078E-05 -0.12515812E-06
 -0.42103473E-05 -0.11699032E-04  0.12263229E-04  0.61852483E-05 -0.17594893E-04
 -0.91870938E-06 -0.26543742E-07  0.16288288E-05 -0.76399096E-04  0.13602115E-03
  0.67415075E-04 -0.18791940E-03  0.32387454E-03 -0.74775934E-04  0.11612987E-03
 -0.16237298E-03 -0.18264036E-03 -0.10378244E-05  0.19600132E-04 -0.15210858E-04
  0.19989296E-05 -0.22388138E-05  0.13897227E-04  0.73948319E-05  0.88179973E-06
  0.14772079E-04 -0.28284322E-04 -0.66234810E-04  0.11680736E-03 -0.10370283E-03
 -0.12955291E-04 -0.13385681E-03 -0.31711290E-03 -0.10890801E-03 -0.18931655E-04
  0.42034593E-05  0.53229384E-05  0.44602464E-05  0.10261084E-04  0.16859928E-04
  0.40211998E-05 -0.45299818E-05  0.93965102E-05 -0.78703292E-05  0.43731668E-05
 -0.98123035E-05  0.11285203E-04 -0.70420665E-05  0.94388034E-06  0.99621486E-05
  0.39960381E-05 -0.12119216E-04 -0.23178773E-05  0.12857798E-05  0.36438774E-05
 -0.41804551E-05  0.62713087E-05  0.56450473E-06  0.13465749E-05 -0.29157524E-05
  0.94758495E-05 -0.21463847E-05  0.57492996E-05  0.12352992E-04 -0.30839103E-05
 -0.10564987E-04 -0.14976153E-04 -0.31810746E-05  0.56228335E-05 -0.23872123E-06
  0.90590060E-05 -0.80923141E-05  0.92959959E-07  0.60454349E-05 -0.93730009E-05
  0.24671279E-04  0.80866491E-05 -0.74483056E-05 -0.95252576E-05 -0.86179694E-05
  0.57321387E-04 -0.10987738E-03 -0.94145416E-04 -0.46123300E-04 -0.12322720E-03
 -0.33071508E-04 -0.35750948E-05 -0.39613719E-04 -0.28711354E-04  0.73189852E-05
  0.23117636E-04 -0.11990718E-04 -0.41694221E-05 -0.23599811E-05  0.13342915E-04
  0.42256000E-05  0.15254424E-05 -0.31906005E-05 -0.34180164E-03  0.14458151E-04
  0.62554439E-04  0.61751630E-03 -0.21297219E-03 -0.24879717E-03 -0.10763741E-03
  0.94849682E-04  0.11104314E-03 -0.10977177E-05 -0.12983110E-04 -0.33297903E-05
 -0.28844015E-04  0.96954779E-05 -0.37218358E-05 -0.16797573E-04  0.10410282E-04
  0.18504767E-04 -0.17180654E-03  0.83164155E-04  0.69853111E-04  0.11448357E-03
  0.49164751E-03 -0.27118658E-03 -0.39186577E-03  0.19310530E-04  0.25018778E-05
 -0.28770410E-05 -0.34633477E-04 -0.38693906E-04  0.34302697E-04  0.31521639E-04
 -0.68747009E-04 -0.66754636E-05 -0.11582142E-04 -0.37605544E-04  0.50707576E-04
  0.15358836E-03 -0.22449157E-04  0.20169885E-03  0.31898597E-03 -0.53536002E-04
  0.18304635E-02 -0.21908121E-03 -0.20397223E-03 -0.11296068E-05  0.15185156E-04
  0.22963494E-05  0.11251916E-04 -0.13594007E-04 -0.38467572E-05 -0.29186115E-04
 -0.10626652E-05 -0.12435107E-05 -0.87230450E-05  0.20611439E-05  0.72178961E-05
 -0.66227662E-05 -0.18265013E-04  0.15774460E-05 -0.78468628E-05 -0.35117920E-05
  0.20856603E-05 -0.11613903E-05  0.12796242E-04 -0.18949316E-06  0.96978054E-05
 -0.21609888E-04  0.22851487E-05 -0.76808347E-05  0.23701806E-05 -0.13155636E-04
  0.14683500E-05 -0.11828592E-05  0.10268085E-05  0.41088770E-05  0.17739682E-04
 -0.64034170E-05  0.33521885E-05 -0.62863456E-05 -0.18188940E-04 -0.26676194E-04
  0.97472572E-05 -0.11677804E-04 -0.97410185E-05  0.24956153E-04 -0.85980838E-05
 -0.25992721E-04  0.99778913E-06 -0.10415972E-04  0.11576734E-03 -0.16962654E-04
  0.14568717E-03  0.21742464E-03  0.27856178E-04 -0.78620650E-03  0.72187946E-04
 -0.17696446E-03 -0.91069577E-04 -0.66218143E-05 -0.58416109E-05 -0.10040829E-04
 -0.30752839E-05  0.48345992E-05 -0.64337638E-05  0.46343569E-05 -0.51783518E-05
  0.84521342E-05  0.70462335E-05 -0.92741460E-04  0.13904829E-03  0.86135803E-04
 -0.72277734E-04 -0.33650016E-04  0.25513208E-04 -0.76155921E-04  0.90902773E-04

 -0.28531055E-05 -0.16673995E-05  0.26165771E-05  0.12100208E-05  0.51799594E-05
  0.22917267E-05 -0.48248081E-06  0.12009766E-04 -0.17109739E-05  0.16290258E-05
  0.13867578E-04 -0.10505385E-04 -0.23217965E-05  0.10509230E-04  0.68132225E-05
  0.58792910E-05 -0.13483293E-04  0.11632211E-04  0.32752041E-04  0.24099347E-03
 -0.77793649E-04  0.11894477E-03 -0.49287201E-04 -0.57326010E-04 -0.15773010E-03
 -0.68039170E-04 -0.35451388E-04 -0.29620955E-05 -0.35466769E-05 -0.10037962E-05
  0.95549295E-05 -0.18000120E-05 -0.94473964E-05  0.19400509E-05  0.83606885E-06
  0.11109437E-04  0.41580422E-04  0.28334076E-04  0.82036325E-04  0.13575455E-03
  0.65400430E-04 -0.18593457E-03 -0.15835732E-04 -0.14003471E-03 -0.75456195E-04
  0.94984031E-05  0.98078954E-05  0.28751289E-05 -0.91146874E-05  0.87719206E-05
  0.89057098E-05  0.66562384E-06  0.11050842E-05 -0.19916760E-05  0.59074540E-05
 -0.23216971E-05  0.84940414E-05  0.64374219E-06  0.27481363E-05 -0.36300156E-06
 -0.90377225E-05  0.62543707E-05  0.82833720E-05 -0.58464832E-05 -0.73594872E-05
  0.16105314E-04  0.19670461E-05 -0.61594144E-05  0.14633794E-04 -0.77068829E-05
 -0.75296787E-05 -0.19015038E-05 -0.24585198E-06  0.23275028E-05  0.11550607E-06
  0.14546137E-04  0.32859395E-05 -0.69627676E-05  0.10354609E-04 -0.19359802E-04
  0.64942173E-05  0.16958290E-04 -0.99708984E-05 -0.35658105E-04  0.12501629E-04
 -0.54837792E-05 -0.16404431E-04 -0.72950936E-06 -0.11894856E-05 -0.36790955E-05
 -0.22522389E-03  0.70998002E-04  0.70357715E-04 -0.11337515E-05  0.16072899E-03
 -0.19295936E-03 -0.48506106E-04 -0.92345531E-04  0.14085064E-03 -0.12801900E-04
 -0.20399354E-04  0.32525631E-05 -0.19756466E-04  0.99051881E-05  0.93988896E-05
  0.53169615E-06 -0.12711834E-05  0.10683027E-04  0.19985856E-03 -0.45120497E-04
 -0.26051594E-03  0.31948635E-03 -0.67107577E-04 -0.44406775E-04  0.12390054E-03
  0.23379054E-04 -0.73985676E-04  0.50287882E-06  0.86704694E-05  0.13207814E-04
  0.22140146E-04 -0.21311763E-04  0.38007469E-04  0.86466853E-05 -0.72409271E-06
  0.89771302E-05 -0.77042042E-05  0.11006760E-03 -0.82593185E-04  0.96329713E-05
 -0.25937362E-03  0.85537828E-04  0.24798534E-03 -0.14903532E-03  0.40789392E-04
  0.20539740E-04 -0.39532607E-04  0.96605527E-04 -0.92966691E-04 -0.25683850E-04
  0.74893384E-04  0.64767724E-06  0.15755625E-04 -0.54714098E-04 -0.23332969E-03
 -0.11077674E-03  0.35575975E-03 -0.46721158E-04  0.39892690E-03 -0.38181160E-03
 -0.21908121E-03  0.19368269E-02  0.32104744E-03 -0.47040794E-06 -0.86168497E-05
  0.26984216E-05 -0.45721057E-05  0.15941034E-04 -0.15297761E-04  0.13664913E-04
 -0.43356786E-05 -0.61971689E-05 -0.61388897E-05  0.62388715E-05  0.97063066E-06
  0.29259346E-05  0.65023883E-06  0.14370959E-04  0.29930981E-05 -0.92996644E-05
  0.11199532E-04 -0.42951741E-05  0.10565370E-06  0.93987577E-05 -0.27348348E-05
  0.11980486E-04  0.76622158E-05  0.25330671E-05  0.98394463E-06  0.10244514E-04
 -0.21177299E-04  0.59580087E-06 -0.84104671E-05  0.31631498E-05 -0.58142021E-05
  0.28759695E-05 -0.65869893E-05  0.41305929E-05 -0.41420818E-05  0.66089119E-05
 -0.64562369E-05  0.54282007E-05  0.19755540E-04 -0.31500870E-05  0.10257827E-04
  0.12874697E-05  0.26809309E-05  0.19932023E-05  0.50643683E-04 -0.12840495E-03
  0.40196569E-04 -0.15933276E-03  0.11043789E-03  0.59547926E-03  0.58513810E-05
 -0.18914668E-03  0.20973469E-03 -0.21046220E-05 -0.94458401E-06 -0.35718652E-05
  0.64851738E-05 -0.45938736E-05  0.35994955E-05 -0.61761593E-05 -0.10152155E-05
 -0.11606147E-04  0.10420794E-03  0.31826030E-04  0.58348468E-04  0.19057706E-03
 -0.57482861E-05  0.80784969E-04 -0.56777573E-04  0.13170496E-03 -0.12966280E-03

  0.46068985E-06 -0.13370202E-04  0.20263141E-04  0.25794131E-05  0.25409242E-04
 -0.85816645E-05  0.99882022E-05  0.12057239E-04 -0.43541970E-05 -0.80969881E-05
  0.22479441E-04  0.13949646E-04  0.17761120E-04 -0.12435215E-04 -0.24129888E-05
 -0.30844975E-05 -0.30266673E-05  0.58002190E-05  0.49488714E-03  0.47820920E-03
 -0.36421226E-04  0.32548156E-03 -0.19079701E-03 -0.20893860E-03 -0.17085891E-03
 -0.16063302E-03  0.26997260E-03 -0.17059570E-04  0.84044651E-05  0.52503887E-05
  0.51729401E-05  0.75803927E-05 -0.29589967E-04 -0.98171123E-05  0.20220311E-04
  0.75508334E-05  0.15338330E-03 -0.95485225E-04  0.14600703E-03 -0.14843285E-03
  0.17561236E-03 -0.23935400E-03  0.11274119E-03 -0.17365994E-03 -0.31042191E-03
  0.93661648E-05  0.50468931E-04 -0.46194136E-05  0.16201820E-04 -0.13329772E-04
 -0.73264476E-05 -0.99349913E-05  0.20712844E-04 -0.12553440E-04  0.78502931E-05
  0.20026416E-04 -0.38623748E-05  0.23014530E-05  0.10834308E-04 -0.32613564E-04
 -0.28068362E-05  0.14858560E-04  0.21331319E-04 -0.10940495E-04  0.60358131E-06
  0.55394530E-06  0.12360134E-04  0.56684665E-05  0.17436054E-04 -0.12992560E-04
 -0.44470519E-05 -0.13276123E-04  0.85429817E-06  0.23957356E-05  0.81318340E-05
  0.46433472E-05  0.22794339E-05  0.22656607E-04  0.76735881E-05 -0.23814342E-04
  0.10013672E-04  0.30456672E-04 -0.40631901E-04 -0.24317565E-04 -0.51299084E-05
 -0.38342678E-04  0.13491116E-05 -0.11505221E-04 -0.34361429E-05 -0.65151045E-05
 -0.15498740E-03  0.37278101E-03 -0.15319220E-04  0.68908430E-04  0.32682472E-03
 -0.45139548E-03 -0.21559449E-03  0.19641398E-04  0.16442303E-03  0.97141729E-06
  0.14454481E-04  0.18386545E-05  0.48157571E-05  0.26554307E-04  0.68723387E-05
 -0.87916711E-05 -0.67225727E-05 -0.25307427E-04 -0.22297350E-04  0.21085772E-03
 -0.35683757E-03  0.25106890E-03 -0.94291456E-04  0.14897601E-03  0.15951351E-03
 -0.14209467E-03 -0.23897549E-03 -0.21523030E-05 -0.78754263E-05 -0.32973442E-04
  0.18735131E-04  0.10928593E-04 -0.38244571E-05  0.77408533E-05 -0.17903191E-04
 -0.20498342E-04 -0.40193796E-04 -0.12057573E-03  0.12958231E-04  0.30189387E-03
  0.15405118E-03 -0.13397273E-03 -0.97064405E-04 -0.11750965E-04 -0.24609562E-03
 -0.69421095E-04  0.54939847E-04  0.82176952E-04 -0.10977889E-04 -0.10944540E-03
  0.74263182E-04 -0.34105410E-04 -0.83610698E-04  0.38592627E-04  0.16489456E-04
 -0.60313074E-03  0.30951965E-03  0.33599623E-03 -0.24031932E-03 -0.54253364E-03
 -0.20397223E-03  0.32104744E-03  0.38100144E-02 -0.19411083E-05 -0.17787835E-04
 -0.15917740E-04 -0.36703808E-05  0.39876748E-04 -0.21069406E-04  0.10913741E-04
  0.53315815E-05 -0.36286061E-04  0.15615008E-04 -0.10309670E-04 -0.23669055E-05
  0.65348174E-05 -0.17777655E-05  0.16336039E-04  0.72064507E-05  0.20409577E-05
 -0.17191944E-04 -0.64419250E-05  0.70514083E-05 -0.19952357E-05 -0.76310159E-05
  0.25910621E-04  0.79050197E-05 -0.12524716E-04  0.39613117E-05 -0.19245636E-04
 -0.47881489E-05  0.60287809E-05 -0.10989258E-04  0.36624707E-05 -0.13281885E-04
 -0.13452914E-04 -0.39030404E-05 -0.36795138E-06  0.31374332E-04  0.13696648E-04
  0.18386543E-04 -0.45870084E-04 -0.11414744E-04  0.20351072E-04  0.27455902E-04
 -0.64404061E-05  0.40733613E-05 -0.19767541E-04  0.35063647E-05  0.31575033E-03
  0.15524306E-03  0.35615991E-03 -0.29410823E-05 -0.66596204E-03 -0.61693615E-04
 -0.53276278E-03 -0.11866305E-03 -0.57905874E-05  0.77818074E-05 -0.82921070E-05
 -0.71804395E-05 -0.73656726E-05  0.14988917E-04  0.15964683E-04  0.13523701E-05
 -0.58645783E-05  0.22205271E-03  0.63687200E-04 -0.37179817E-03 -0.51091421E-04
 -0.16229963E-03  0.47407589E-04  0.37440550E-04  0.13345489E-03  0.96188129E-04

  0.15195421E-05 -0.25643407E-05  0.57319369E-06 -0.91836022E-06 -0.90746589E-06
 -0.92290708E-06 -0.10815855E-05  0.13225479E-05 -0.88448976E-06 -0.85839473E-06
  0.24536525E-05  0.13994207E-05  0.12308494E-05 -0.17678695E-06 -0.96608554E-06
  0.66101535E-06 -0.92260338E-06 -0.74406073E-06 -0.37995765E-05  0.12518262E-04
  0.14822755E-04 -0.20168019E-04  0.71204955E-06  0.15493517E-04  0.75308943E-05
 -0.77274743E-06  0.10295416E-04 -0.22359524E-05  0.56974988E-06  0.48263449E-06
  0.18058247E-06 -0.20776274E-05  0.16390701E-05 -0.12311055E-05  0.92666781E-06
 -0.22254801E-06 -0.33237867E-06 -0.17249140E-04 -0.28858715E-06  0.20086353E-07
 -0.82599730E-05 -0.16348528E-04 -0.44528868E-05 -0.15398795E-04 -0.15819411E-04
  0.13022859E-05  0.12429246E-05 -0.33733537E-06 -0.97716648E-06  0.39394741E-07
 -0.21066801E-05  0.64225798E-06 -0.95935318E-06 -0.18488195E-07 -0.23757378E-05
 -0.54198611E-06 -0.10047007E-05 -0.83489772E-06 -0.41186736E-06 -0.18018480E-06
 -0.35059312E-06  0.32693824E-06  0.10841872E-05 -0.41719087E-06 -0.32970168E-06
  0.73787132E-06 -0.19221664E-07 -0.32283660E-06  0.90601053E-06 -0.10119959E-05
 -0.11970430E-05 -0.75054991E-06  0.20528820E-06 -0.95924794E-07 -0.21098827E-05
  0.14474328E-05 -0.59237629E-06  0.47379834E-06  0.37199420E-06  0.14938771E-07
  0.15271628E-05  0.57221844E-06  0.61307180E-06 -0.12882159E-05 -0.29290429E-06
  0.11376329E-05 -0.11006335E-05  0.12691819E-05  0.41567931E-06  0.48054518E-07
  0.19486584E-04  0.22582349E-04 -0.45565688E-05 -0.35308269E-04  0.15992718E-04
 -0.89511187E-05  0.88551241E-05  0.51329251E-05 -0.13824699E-04 -0.50982506E-06
 -0.43397863E-06 -0.16015197E-05  0.11320396E-05  0.14795423E-05 -0.13016184E-05
  0.18673576E-05 -0.13239355E-05 -0.16900814E-05  0.59661438E-05  0.67829103E-05
  0.85701024E-05 -0.51048802E-05  0.47903964E-06 -0.60897859E-05 -0.20948464E-05
  0.28417674E-04 -0.76994939E-05 -0.31230579E-05  0.98909898E-06 -0.10466291E-05
  0.41481657E-06  0.16711091E-05 -0.68342606E-06  0.10189902E-05  0.59849008E-06
 -0.11162271E-05  0.15171036E-04 -0.32766918E-04 -0.17478884E-04 -0.53908095E-05
 -0.24173547E-04  0.21427646E-04  0.22629410E-04 -0.19294454E-04  0.10379278E-04
 -0.11708604E-05  0.50082439E-05 -0.12428407E-05  0.28844793E-06  0.46114952E-05
 -0.19076682E-05  0.45030131E-06 -0.11064770E-06 -0.13527301E-05  0.96696478E-05
  0.11932246E-05 -0.10296172E-04 -0.16696909E-04  0.15622247E-04  0.84261834E-05
 -0.11296068E-05 -0.47040794E-06 -0.19411083E-05  0.24624290E-04  0.15291655E-05
  0.13745976E-05  0.58473001E-06 -0.16458686E-05 -0.50914835E-06 -0.65680477E-06
  0.24101015E-06  0.94483455E-07 -0.86689993E-06 -0.10359521E-05 -0.59980099E-06
 -0.68075920E-07  0.59905103E-06  0.63949009E-06  0.16933651E-05  0.79562441E-06
 -0.80711072E-07  0.10725354E-06 -0.11588359E-05  0.13742896E-05 -0.81764325E-06
 -0.34523469E-06  0.16958671E-06 -0.11268834E-05  0.20113435E-06 -0.94445625E-06
 -0.18079512E-05  0.16271450E-06 -0.11021487E-05 -0.90298112E-06 -0.88037062E-06
 -0.12460074E-06 -0.19364645E-06  0.98561162E-06  0.31900916E-06  0.12875086E-05
 -0.72158962E-06  0.17800596E-05  0.16532092E-05 -0.15306463E-05 -0.14528479E-06
 -0.10999449E-05 -0.54685077E-06 -0.23602928E-06 -0.35984787E-05  0.13850110E-04
  0.41899953E-05 -0.19324075E-04  0.72472868E-06  0.22917543E-04  0.12299164E-04
 -0.55030516E-05  0.33221681E-04 -0.51758927E-06  0.97667379E-06  0.43816161E-06
 -0.43521778E-06 -0.24817607E-06 -0.27387332E-06 -0.13493771E-06  0.25805408E-06
 -0.46034296E-06 -0.19296102E-04 -0.11573022E-04 -0.37852491E-05 -0.50203104E-04
  0.29731504E-05  0.25621978E-04 -0.11655568E-04 -0.10890608E-04 -0.98087197E-05

 -0.34594695E-06 -0.96124452E-06  0.13987429E-06  0.34982297E-06 -0.16757810E-05
 -0.75569750E-06  0.22395577E-06  0.10273631E-06  0.57039655E-06 -0.33308649E-05
  0.26890079E-06 -0.22053852E-05 -0.17960089E-06 -0.66049852E-06  0.12922971E-05
 -0.10059612E-05 -0.95163619E-07 -0.28962729E-05 -0.56620835E-05 -0.11531843E-05
  0.11171273E-04 -0.16264732E-04  0.47987493E-04  0.67969765E-05  0.16332474E-04
  0.80545719E-05 -0.94949365E-05  0.73988105E-06 -0.49394837E-06 -0.18668338E-05
 -0.20159677E-05 -0.74830065E-06  0.15250399E-05 -0.58965847E-06  0.34468676E-06
  0.11955936E-05  0.15705140E-04 -0.27924437E-05  0.13619961E-04  0.28017056E-05
 -0.14831254E-04  0.60473632E-05 -0.15383097E-04  0.33986774E-05 -0.45787579E-05
  0.12856991E-05  0.31315988E-05 -0.10760973E-06  0.71973250E-07 -0.81095291E-06
  0.93655293E-06 -0.84884392E-06  0.40888378E-06  0.57125531E-06  0.15377175E-06
 -0.51675696E-06 -0.43908228E-06  0.67303175E-06  0.91471171E-06  0.12582029E-05
  0.99408933E-06 -0.43318844E-06 -0.12800576E-06 -0.24086329E-06 -0.59760225E-06
  0.19778644E-06  0.50991854E-07  0.16300453E-05 -0.26323126E-06  0.61459125E-06
 -0.53026226E-07  0.13705466E-05  0.13247933E-06  0.78845185E-06 -0.19671282E-05
  0.15543491E-05 -0.14633471E-05  0.45319675E-06  0.44308374E-06  0.79048010E-06
 -0.17535723E-05  0.23107108E-06  0.33677232E-05 -0.20668181E-05 -0.35706360E-06
  0.60703447E-05 -0.10687231E-06  0.49216534E-06 -0.82564205E-06 -0.65842209E-06
  0.43825896E-05  0.29193624E-04 -0.29483981E-06 -0.17922956E-04  0.61646246E-04
 -0.10488032E-04 -0.12673608E-04  0.10300580E-05 -0.33367626E-04  0.13250010E-05
  0.14932104E-05 -0.23082213E-05 -0.36355400E-07  0.37107757E-05  0.95612488E-06
 -0.10724045E-05 -0.10049017E-06 -0.74806669E-06  0.53869526E-05 -0.22052637E-04
  0.26028112E-04  0.22988481E-04 -0.23813445E-05 -0.38933137E-05 -0.22490625E-04
 -0.39310643E-04  0.61582656E-05 -0.19492471E-05 -0.62879249E-05  0.17598656E-05
 -0.28102629E-05  0.52754494E-05 -0.18829081E-05 -0.78096535E-06 -0.14136119E-05
  0.20601151E-05 -0.65076001E-05 -0.35251414E-04  0.49757044E-05  0.23478922E-04
  0.28859064E-04  0.24517531E-04 -0.22717903E-04 -0.14160662E-04  0.18424750E-04
  0.37260692E-05  0.22571927E-05 -0.26946307E-05  0.72252276E-06  0.42475525E-05
 -0.45195582E-05  0.39642605E-05 -0.12790069E-05 -0.38376709E-06  0.13199199E-04
  0.96231956E-05 -0.87391384E-05 -0.35161928E-05  0.64957948E-05  0.98614316E-05
  0.15185156E-04 -0.86168497E-05 -0.17787835E-04  0.15291655E-05  0.38175340E-04
  0.11608398E-05 -0.24677192E-06 -0.39242128E-05  0.11478412E-05 -0.45430604E-06
  0.59415084E-06  0.11755177E-05 -0.76405212E-07  0.14208504E-05  0.37613261E-05
  0.10976023E-05 -0.39110396E-06 -0.38222212E-05 -0.15280053E-06  0.64258771E-06
 -0.18500248E-05 -0.58492085E-06 -0.25042171E-05 -0.73155509E-06  0.15099816E-05
 -0.66568436E-05  0.13739483E-05 -0.69857095E-06  0.10917164E-05 -0.35117949E-05
 -0.46602625E-07  0.58194555E-06 -0.53247464E-06  0.47232815E-07  0.72780815E-06
 -0.15629501E-05 -0.60999299E-06 -0.36694946E-06 -0.23379894E-06 -0.12695006E-05
 -0.35271146E-07 -0.58943220E-06 -0.10531990E-05 -0.21903782E-05  0.15143697E-05
 -0.16399860E-05 -0.86464018E-06 -0.82904945E-07  0.10403321E-04  0.14188477E-04
  0.11639948E-04  0.14472112E-04 -0.32003947E-04 -0.17218573E-04 -0.15044979E-04
 -0.22225310E-04  0.41096828E-04  0.20198282E-06 -0.12332406E-05  0.97665064E-06
 -0.13123918E-05  0.18172419E-05  0.12208285E-05 -0.14814832E-05 -0.41893852E-06
  0.86478363E-06 -0.18361617E-04 -0.35904572E-04 -0.44471500E-04 -0.38252126E-04
  0.80444211E-05  0.18659652E-05 -0.60039584E-05  0.15718042E-05  0.16750289E-04

 -0.55501311E-07 -0.38781181E-06 -0.55565680E-06  0.41270885E-07  0.74764797E-06
  0.26489790E-05 -0.15525466E-06 -0.14264528E-05 -0.10197413E-05  0.16551751E-06
  0.42033021E-06 -0.23146402E-05 -0.11664154E-05 -0.64821012E-06 -0.13780723E-05
 -0.98416004E-06 -0.29103469E-06  0.44829285E-05  0.19902383E-04  0.85626354E-05
 -0.26636807E-04  0.45964475E-04 -0.20270899E-04  0.95442774E-06  0.11923442E-04
  0.21668975E-04  0.14007628E-04 -0.47386559E-06 -0.25657671E-05 -0.43023446E-05
  0.12944066E-05 -0.69723022E-06 -0.26692642E-05 -0.70391495E-06  0.14359407E-05
  0.12744693E-05 -0.96299820E-08 -0.79598682E-05  0.10794977E-04  0.39974402E-05
 -0.15372828E-04 -0.15702390E-04 -0.25974450E-05 -0.10238417E-04  0.18073193E-04
  0.44491754E-06  0.12549203E-06  0.29505129E-05 -0.18422455E-05  0.18967332E-05
 -0.15969913E-05  0.62953752E-06 -0.19032369E-05 -0.32045897E-06 -0.11416493E-05
  0.13273945E-05 -0.23679486E-05 -0.16887243E-06 -0.10671022E-06  0.28749666E-06
  0.98659490E-06 -0.18445984E-06 -0.12397850E-05  0.84148182E-06  0.33249653E-06
  0.36002165E-06 -0.11948198E-05  0.14296874E-05 -0.19940359E-05 -0.45306237E-06
  0.17062619E-05 -0.20070606E-06 -0.17487273E-05 -0.71818544E-06 -0.31969225E-06
  0.11215669E-05 -0.20158994E-05  0.68410846E-06  0.77724725E-06  0.10266973E-05
 -0.39947670E-06 -0.11064703E-05 -0.11447080E-06  0.23606357E-05  0.80157106E-06
 -0.23384277E-06  0.19341139E-05  0.51131520E-06 -0.91912596E-06  0.36467197E-05
 -0.80357029E-05  0.63756702E-05  0.22483678E-04 -0.72375942E-05 -0.97921704E-05
  0.41787960E-04 -0.10522756E-04 -0.45843505E-04  0.22693112E-04 -0.14377865E-05
  0.85024173E-06  0.29635737E-05 -0.17132028E-05  0.28092404E-05 -0.53475154E-05
 -0.20413029E-05 -0.90160963E-06  0.31949481E-05  0.67463533E-05  0.22745615E-05
  0.42463459E-05  0.38533789E-04 -0.60239718E-06  0.35012880E-05 -0.77966491E-05
 -0.20738900E-04  0.67270504E-05 -0.65945861E-06 -0.30424983E-05 -0.14545202E-05
 -0.71140687E-06 -0.21945290E-05  0.58232278E-05 -0.21393575E-05 -0.91238826E-06
  0.34260335E-05 -0.22448347E-04  0.11891832E-04  0.41547876E-06 -0.49231067E-04
 -0.91465664E-05  0.41594185E-04  0.12931139E-04  0.54878060E-05 -0.11366426E-04
  0.74197910E-06 -0.23514070E-05 -0.13278334E-05  0.90754018E-06 -0.20488871E-05
 -0.20533881E-05 -0.21685788E-05  0.13493860E-05 -0.11197776E-05 -0.19326733E-06
  0.11037086E-04 -0.13970060E-05 -0.12114144E-04  0.27923498E-04  0.19251316E-04
  0.22963494E-05  0.26984216E-05 -0.15917740E-04  0.13745976E-05  0.11608398E-05
  0.36509171E-04 -0.79212888E-06 -0.10441670E-05  0.14434040E-05  0.10330805E-06
 -0.42289546E-06 -0.94309734E-06 -0.18972893E-06  0.74160570E-06 -0.64402368E-06
  0.15979044E-05  0.49397946E-06 -0.25941958E-05  0.63256149E-06  0.11461006E-05
  0.82314865E-07  0.97762905E-06  0.86903251E-06 -0.93771683E-06  0.43240869E-06
 -0.55403519E-06 -0.39215226E-06 -0.40474442E-06 -0.56104054E-06 -0.19258279E-05
 -0.84065475E-06  0.17408069E-05 -0.40175584E-05  0.98676642E-06 -0.10746111E-05
  0.31984621E-05  0.37889661E-06  0.82682600E-06 -0.48212627E-06  0.99111991E-06
 -0.92415134E-06  0.11791922E-06  0.40531887E-06 -0.20558984E-06 -0.11688419E-05
 -0.12417537E-05  0.20694909E-06 -0.76655149E-06  0.11097581E-04 -0.17133589E-04
  0.22547270E-04 -0.23930041E-04  0.65665004E-07  0.97017818E-04  0.40647689E-05
 -0.35270140E-04  0.53525412E-04  0.85853228E-06  0.61229456E-06  0.48054108E-06
 -0.91126134E-06  0.58377786E-07  0.85439433E-06 -0.15875499E-06 -0.49027111E-06
  0.22363389E-06 -0.42991178E-05  0.91708928E-05 -0.37929414E-04 -0.20783360E-04
  0.16461418E-04 -0.59356224E-04 -0.14747529E-04  0.62684436E-05  0.74074938E-05

  0.20607098E-05  0.12691218E-05 -0.11448661E-05 -0.72361403E-06  0.15901946E-05
  0.14630891E-05 -0.52047149E-08 -0.12480879E-05 -0.47447639E-06  0.40754901E-06
  0.98621666E-06 -0.15006875E-05  0.76330767E-06  0.21685791E-05 -0.14533103E-05
  0.61034122E-06 -0.12176510E-05 -0.18165396E-06 -0.79566158E-05 -0.51312262E-05
  0.36394276E-05  0.58092886E-05  0.12713814E-04 -0.25406650E-05  0.85397709E-05
 -0.10390704E-04 -0.13488231E-04 -0.14406014E-06  0.24012452E-05 -0.15936855E-05
  0.26629787E-05 -0.39733560E-06  0.19792612E-05  0.61814416E-06  0.13254190E-05
  0.13383980E-06  0.15117231E-04  0.11053357E-04  0.73173740E-05  0.14269779E-04
 -0.13677797E-04 -0.50661930E-05 -0.28618128E-04 -0.74926698E-05  0.69635137E-05
 -0.98473108E-06  0.35409663E-06  0.95606771E-06 -0.43441209E-05  0.36416937E-05
  0.13677982E-05  0.17526620E-06  0.14003373E-05  0.37277341E-06 -0.11090158E-05
  0.14478695E-06  0.47406728E-06 -0.74482059E-06 -0.24001100E-06  0.13149946E-05
  0.56315864E-08  0.39281326E-06 -0.43295546E-06  0.11826672E-05  0.56898038E-08
 -0.42667839E-07  0.63710630E-06 -0.20229941E-06  0.65113477E-06 -0.44016639E-06
  0.75693268E-06 -0.21880070E-06  0.62394910E-06 -0.19740417E-05 -0.49766210E-06
 -0.58276852E-05  0.23468330E-05  0.12888260E-05 -0.31865406E-06 -0.27097599E-05
 -0.18657337E-06  0.73400387E-06 -0.57040892E-06  0.44833301E-07 -0.10518025E-07
  0.16447473E-05  0.15738323E-05 -0.19297298E-06  0.20155352E-05 -0.38721116E-06
  0.12245871E-04 -0.56001899E-05  0.76798551E-05 -0.10903135E-04  0.33479743E-05
 -0.13645756E-04  0.26773820E-05  0.66198704E-05 -0.57462251E-05 -0.22014958E-05
 -0.36795354E-05 -0.22576239E-05 -0.16737048E-05  0.14296088E-05  0.21385805E-05
 -0.83237247E-06 -0.30338074E-06  0.12548639E-05 -0.10829023E-05 -0.15679586E-04
 -0.35506649E-04  0.13400685E-04 -0.27096740E-05 -0.66572211E-05 -0.71831004E-05
 -0.16066827E-05 -0.70202205E-05 -0.21132407E-05 -0.39334132E-06 -0.39793793E-06
 -0.55271364E-06 -0.10126438E-05  0.21975568E-05 -0.81593358E-06  0.79623094E-06
 -0.11168260E-05  0.21989990E-06  0.62125750E-05 -0.43777375E-05  0.12326122E-04
  0.69319230E-05 -0.99094176E-05 -0.11472566E-04  0.51137743E-05 -0.42182224E-05
  0.19524496E-05  0.73915429E-06 -0.10980510E-05 -0.35555188E-05  0.31437495E-05
  0.34762402E-06  0.22537085E-05 -0.90074636E-06 -0.12075922E-05 -0.38575165E-04
 -0.68072977E-05  0.40044469E-05 -0.39283144E-04  0.22796814E-04  0.20804873E-04
  0.11251916E-04 -0.45721057E-05 -0.36703808E-05  0.58473001E-06 -0.24677192E-06
 -0.79212888E-06  0.37875152E-04 -0.16038696E-04 -0.12885836E-04 -0.12092371E-05
  0.21740093E-05 -0.92623118E-06 -0.21737087E-06 -0.20438175E-06 -0.99174829E-06
 -0.30542971E-05  0.11355838E-05  0.25926445E-05 -0.47460960E-06 -0.65078121E-06
  0.30600713E-05 -0.27034487E-06  0.42892781E-06 -0.11419055E-06  0.61143755E-06
  0.16575449E-05  0.31285287E-06 -0.60724497E-06  0.50441337E-06  0.13623938E-05
  0.25478022E-05 -0.48727803E-06  0.14452763E-05 -0.30480159E-05  0.16746787E-05
  0.20224555E-05  0.14009694E-05 -0.15800488E-05 -0.13729105E-05 -0.11611441E-05
  0.12662503E-05 -0.54055965E-06  0.32644383E-05  0.16612935E-05 -0.10706743E-05
 -0.11874327E-05  0.60440679E-06 -0.71591137E-06  0.33994825E-05 -0.18611971E-04
 -0.19250275E-04  0.27132270E-04  0.18592696E-04 -0.28056187E-04  0.66232878E-05
 -0.17822226E-04  0.35887475E-05  0.29745391E-06 -0.26714660E-06 -0.83934126E-06
  0.15084001E-05  0.30995196E-06  0.50162887E-06  0.18990405E-06  0.79782406E-06
  0.56329806E-06 -0.14552551E-04  0.28004242E-05  0.21480732E-04  0.52473595E-04
 -0.89010358E-05  0.35834007E-05  0.70143395E-05 -0.70249383E-05 -0.12203653E-04

  0.18184735E-06 -0.33125323E-05 -0.63515519E-06  0.16157100E-05 -0.25949526E-05
  0.13261121E-05  0.72013462E-06  0.12816629E-05  0.10972136E-05  0.21864755E-06
 -0.79918765E-06  0.30597698E-05  0.95918618E-06 -0.26264495E-05  0.21292570E-05
  0.15356622E-05 -0.73800287E-06  0.11491959E-05  0.10985639E-04  0.19601615E-04
  0.13277601E-04 -0.15693113E-04 -0.34135707E-05  0.30662205E-04  0.18166306E-04
  0.14988140E-04  0.14054513E-05 -0.50002745E-06 -0.19358479E-06 -0.21134636E-05
 -0.52390425E-06 -0.27724062E-05  0.13701660E-05 -0.19275583E-05 -0.27089621E-06
 -0.10407474E-05 -0.11562898E-04 -0.15740201E-04 -0.65878280E-05 -0.26166070E-04
  0.54521257E-04 -0.11535122E-05  0.74771753E-05 -0.24007392E-05  0.12796828E-04
 -0.47709739E-06 -0.18831184E-05 -0.30254301E-05  0.30610322E-05 -0.65283793E-05
 -0.36816797E-06  0.29373883E-05 -0.67227765E-06 -0.68886326E-06 -0.43292610E-06
 -0.20090777E-05 -0.18020450E-06 -0.44267407E-06  0.11005302E-05  0.45322193E-06
 -0.83508585E-06 -0.22332414E-06  0.17475412E-05  0.61130605E-06  0.63713786E-06
  0.11456556E-05  0.36876871E-06 -0.15275042E-05  0.99908858E-06 -0.72009100E-06
 -0.41613587E-06  0.13479769E-06 -0.12046052E-05  0.20094808E-05  0.13928634E-06
  0.27346990E-05 -0.40698559E-05  0.27327278E-05 -0.65410661E-06 -0.10264467E-06
 -0.35582031E-05  0.22094238E-05 -0.29491712E-05 -0.29737176E-05 -0.30354530E-06
 -0.12636167E-04  0.57576745E-05 -0.47216611E-05 -0.46944509E-06  0.14335906E-05
  0.25239917E-04 -0.27972333E-05 -0.21518839E-04 -0.11460632E-06  0.67427579E-04
 -0.23742348E-05 -0.13921707E-04  0.31752117E-05  0.11825431E-04 -0.42694792E-06
  0.10452293E-04  0.13302593E-06  0.70810948E-06 -0.66242835E-05  0.18997896E-05
  0.29046791E-05  0.87035660E-06 -0.45085383E-05  0.12525620E-04  0.63627974E-05
  0.39351921E-04 -0.35340164E-04  0.10976727E-04 -0.62530701E-05  0.25565822E-04
  0.30618329E-04  0.47156167E-05 -0.19113262E-05  0.58526663E-05 -0.34916735E-05
  0.27260506E-06  0.12810661E-05 -0.21521666E-05  0.33963051E-05 -0.21025565E-05
 -0.50516710E-05  0.18189288E-04 -0.24602480E-04 -0.13216131E-04  0.54005510E-04
 -0.84464691E-04  0.62316641E-06  0.15380751E-04 -0.30277542E-04  0.22202519E-05
 -0.41884641E-05 -0.59134073E-05  0.22692216E-05  0.31789402E-05 -0.69283730E-05
  0.42267596E-05 -0.61739553E-05  0.27981262E-05  0.72590222E-05  0.11117572E-04
 -0.82527242E-05  0.66962577E-05  0.16143847E-04 -0.83101084E-04  0.18808370E-04
 -0.13594007E-04  0.15941034E-04  0.39876748E-04 -0.16458686E-05 -0.39242128E-05
 -0.10441670E-05 -0.16038696E-04  0.65401503E-04 -0.14681881E-04  0.18427936E-05
 -0.14971853E-05  0.62499989E-06  0.11313726E-05 -0.30101703E-05  0.17060397E-05
  0.16629895E-05  0.14362748E-05 -0.13005180E-05  0.17739358E-05  0.26955237E-06
  0.10439368E-05  0.31836933E-06  0.34010484E-05 -0.58806774E-06  0.13198649E-05
 -0.48895009E-05  0.27275362E-05 -0.97924601E-07  0.12667699E-06  0.11556523E-05
 -0.98870938E-06  0.10727181E-05 -0.24489049E-06  0.27733661E-05 -0.54448124E-05
  0.19596987E-06 -0.57707781E-06 -0.42680308E-06  0.16416394E-05  0.29743523E-05
 -0.11691250E-05  0.57608654E-06 -0.19505443E-05  0.13471067E-05 -0.15427642E-05
  0.13205971E-05  0.84831770E-07  0.16880192E-05 -0.17412247E-04  0.49692216E-04
  0.31338904E-04  0.11477162E-05 -0.19074610E-04 -0.68174872E-04 -0.30731360E-05
  0.22298737E-04 -0.69061980E-04  0.67652442E-06  0.16285199E-05  0.35160654E-06
  0.47451764E-06 -0.36302972E-05  0.39304384E-06 -0.18314344E-05 -0.85657396E-07
 -0.81566418E-06  0.19996312E-04  0.10530336E-04  0.57732033E-05 -0.49238218E-04
 -0.30531627E-04  0.32120920E-04  0.11390578E-04 -0.51428680E-05  0.22294450E-04

 -0.24590100E-05  0.15994806E-07  0.26275991E-05  0.48958895E-06  0.87936907E-06
 -0.77863813E-06  0.13316800E-05  0.73825973E-06  0.65568872E-06 -0.57670502E-06
 -0.29461543E-06 -0.12236648E-06 -0.72865819E-06  0.20655183E-05 -0.46719943E-05
 -0.49197014E-06  0.10611038E-05  0.13195898E-05  0.33210592E-04  0.38793180E-05
  0.10831280E-04  0.49408047E-04 -0.28134784E-04 -0.32585455E-05 -0.33281040E-04
 -0.60919690E-05  0.14471133E-04  0.19453879E-06 -0.19371222E-05  0.27706016E-05
  0.10619230E-06  0.24090294E-05 -0.10338522E-05  0.13168065E-05 -0.98687302E-06
  0.63826764E-06 -0.12630590E-04 -0.24005249E-04 -0.45250144E-04  0.13352460E-04
  0.12472769E-05  0.21572657E-04  0.31803823E-04  0.20157802E-04  0.23219125E-04
 -0.31322145E-07  0.54628853E-06  0.33267604E-05  0.13430960E-05 -0.12641019E-05
 -0.17408518E-05 -0.20956679E-05  0.49664839E-06 -0.24413374E-06  0.35359412E-06
  0.82062952E-06  0.22841146E-05  0.15253973E-05  0.71512192E-06 -0.42085290E-05
  0.85547810E-06 -0.11012746E-05 -0.43780756E-06 -0.52929724E-06 -0.43754430E-06
 -0.18948960E-05  0.41389509E-06  0.21001498E-05  0.48985923E-06  0.99021577E-06
  0.11924606E-05 -0.90229523E-07  0.15785836E-05 -0.13011324E-05  0.17450664E-05
  0.91060214E-06  0.29809965E-05 -0.31124220E-05 -0.16446214E-05  0.27369663E-05
  0.20809762E-05 -0.10749701E-05  0.30392862E-05  0.94733987E-06  0.23065559E-05
  0.46609839E-05 -0.57101272E-05  0.79965342E-06 -0.10287259E-05 -0.22873096E-05
 -0.20965864E-04  0.65639309E-05 -0.22155419E-04  0.84454015E-05 -0.35348565E-04
  0.17986283E-04  0.16588007E-04 -0.11703615E-04 -0.18481381E-04  0.95123498E-06
 -0.15260898E-05  0.38491194E-05  0.24187877E-05  0.12137319E-05 -0.67010638E-05
 -0.53728573E-06 -0.19421257E-05 -0.94392674E-06 -0.11241148E-04  0.13963831E-04
  0.14252077E-05 -0.18970574E-04  0.10028173E-05  0.15293495E-04 -0.69128243E-05
 -0.11345350E-05 -0.24867576E-05  0.52632210E-06 -0.24081983E-05  0.32656018E-05
  0.17777237E-05 -0.68582357E-06 -0.24572300E-05 -0.61343051E-06  0.19950965E-05
  0.52703319E-05 -0.58184070E-05  0.60624363E-06  0.44728337E-04 -0.18331009E-04
  0.15675905E-06  0.28902594E-04 -0.10569740E-04  0.38613800E-04  0.13000025E-05
  0.70217384E-06  0.44251873E-05 -0.45340379E-06 -0.74435105E-06  0.43902191E-05
 -0.31280986E-05  0.40265727E-05 -0.36401523E-05 -0.26623310E-05  0.10951843E-04
 -0.75252500E-05 -0.54321567E-06  0.21418980E-04  0.35503312E-04 -0.23768207E-04
 -0.38467572E-05 -0.15297761E-04 -0.21069406E-04 -0.50914835E-06  0.11478412E-05
  0.14434040E-05 -0.12885836E-04 -0.14681881E-04  0.49322882E-04 -0.45651906E-06
  0.29017558E-05  0.11663097E-05 -0.33941237E-06  0.32241858E-05  0.71361558E-06
  0.20676059E-05 -0.26895747E-05 -0.23441957E-05 -0.22335566E-07  0.20355571E-06
 -0.54980110E-05  0.23357046E-06 -0.71516552E-06  0.31478753E-06  0.43780913E-06
  0.34059478E-05 -0.28880604E-05 -0.55716889E-06 -0.69929616E-06 -0.16831202E-05
 -0.13595121E-05 -0.22981621E-06 -0.24866359E-05  0.16942970E-05  0.18829194E-05
 -0.14347823E-05  0.53578388E-06  0.40809483E-06  0.74389006E-06 -0.13376677E-06
 -0.63750674E-06  0.82517534E-06 -0.16489055E-05 -0.57592340E-06  0.41865215E-06
  0.10349909E-05 -0.13963490E-05  0.13738638E-05  0.12212856E-05  0.12487590E-04
  0.20809583E-04 -0.23728413E-04 -0.29481551E-04  0.10307667E-03 -0.39258917E-05
  0.82109716E-05 -0.17686271E-04 -0.37899204E-06 -0.17846956E-05  0.82793730E-06
  0.53287855E-06  0.28294635E-05 -0.74964999E-07  0.10611518E-05  0.32127491E-06
 -0.77051859E-06 -0.15314085E-05 -0.14558578E-04 -0.16904663E-04  0.24739138E-04
  0.24217845E-04 -0.59047539E-04 -0.36007405E-05 -0.76852080E-05 -0.35340765E-04

  0.97576693E-06  0.49265183E-06 -0.38906909E-06 -0.14875063E-05 -0.33247022E-05
  0.15243035E-05  0.17101199E-06 -0.11947882E-05 -0.12445196E-05  0.11261561E-05
  0.16508709E-05  0.43872364E-06 -0.12475012E-05 -0.38781192E-05  0.18100315E-05
  0.17037498E-07  0.50239105E-07  0.48550834E-06  0.62396227E-06  0.28160920E-05
 -0.89004642E-05  0.15346756E-05 -0.27809224E-05 -0.77817315E-06  0.95482143E-05
  0.10870141E-04  0.70782037E-05  0.56081295E-06  0.22398781E-06 -0.21571176E-05
  0.42619533E-06  0.23186859E-05 -0.10074094E-05 -0.71726191E-06  0.32233667E-06
 -0.28704471E-06  0.69142265E-05 -0.31417413E-05  0.47646188E-05  0.12588659E-04
  0.11109428E-04  0.21254746E-05  0.10880711E-04  0.16113786E-04 -0.57948506E-06
 -0.18471269E-07 -0.14091566E-05  0.82333115E-06 -0.35379200E-06  0.16225040E-05
 -0.14275973E-05 -0.16634376E-05 -0.91180670E-08 -0.17194984E-06 -0.18158967E-06
 -0.46942342E-06 -0.34868781E-06  0.37100261E-06 -0.20306173E-07 -0.84829259E-06
 -0.16256173E-05  0.17023700E-06 -0.39240870E-06 -0.54930556E-06 -0.17339204E-06
  0.19758574E-07 -0.12788608E-05  0.12439263E-05 -0.25819802E-06 -0.12441856E-06
 -0.65837476E-06 -0.16019093E-07 -0.44520151E-06 -0.48872445E-06 -0.11674438E-05
 -0.21455872E-06 -0.90729588E-06 -0.72066602E-06 -0.18690700E-05 -0.16421610E-06
 -0.15295900E-05 -0.29103015E-06 -0.20654002E-05  0.96016784E-06 -0.32207654E-06
 -0.10977977E-05 -0.59208027E-06 -0.12440548E-05 -0.66509460E-06  0.94491425E-07
 -0.66150992E-05  0.30932938E-04 -0.64352131E-06  0.37878167E-05  0.29989103E-04
 -0.11092949E-06  0.17237122E-04  0.51700125E-06  0.28712134E-05 -0.89479392E-07
 -0.74119610E-06 -0.43576233E-07  0.44059472E-06 -0.32300050E-05 -0.29838190E-06
 -0.22430636E-05 -0.24528282E-06  0.74071371E-06  0.91733551E-05 -0.18345774E-04
 -0.48385656E-06 -0.48431410E-04  0.13027660E-04  0.22997514E-04 -0.15721992E-04
 -0.17284326E-05  0.34233128E-05 -0.20522913E-05 -0.18555263E-05 -0.15740045E-06
  0.15470598E-05  0.18254131E-05 -0.12485852E-05 -0.38614790E-06 -0.82336583E-06
 -0.57062694E-06  0.11318610E-04 -0.27724323E-04 -0.50631187E-05 -0.32175135E-05
 -0.28674311E-04  0.39494356E-05  0.27726767E-04  0.12028535E-04  0.10545559E-04
  0.48038287E-06 -0.38735907E-05  0.21339368E-05  0.14757297E-05 -0.90965526E-05
  0.38167092E-05  0.67340143E-06  0.11274947E-06  0.25864058E-05 -0.54057368E-06
 -0.96591420E-05  0.43262117E-05  0.52464039E-05 -0.67555724E-05 -0.39572309E-06
 -0.29186115E-04  0.13664913E-04  0.10913741E-04 -0.65680477E-06 -0.45430604E-06
  0.10330805E-06 -0.12092371E-05  0.18427936E-05 -0.45651906E-06  0.21288837E-04
 -0.53712823E-06  0.12898297E-05 -0.84662933E-06 -0.54420149E-06 -0.23159629E-06
  0.64615127E-06  0.15972467E-05 -0.16501209E-06 -0.24489179E-08  0.19878138E-05
  0.19967271E-07  0.90403676E-06 -0.80070091E-06 -0.21002720E-06 -0.12630733E-06
 -0.43761988E-06 -0.74446691E-07 -0.42108036E-07  0.30351954E-06 -0.69410902E-06
 -0.81572609E-06 -0.71326788E-06 -0.12548646E-05 -0.65393701E-06  0.15370794E-05
  0.26129407E-06 -0.27219281E-05 -0.48752415E-06 -0.73230659E-06  0.94946095E-06
  0.10659965E-05 -0.91949580E-06  0.69675578E-06 -0.11496732E-05  0.60851812E-06
  0.29249192E-06  0.22156052E-05  0.97060081E-07 -0.16894777E-04 -0.54303379E-06
 -0.45718665E-05 -0.62428568E-05 -0.31541703E-05  0.81547135E-05  0.15654522E-04
  0.12985913E-04 -0.13992849E-04  0.47336520E-06  0.15228134E-05 -0.68213055E-07
  0.80819364E-06  0.20287980E-06 -0.53113332E-06 -0.68861857E-06 -0.56144975E-06
 -0.12296991E-05 -0.11760208E-04 -0.57504858E-05 -0.15184238E-04 -0.16130301E-04
  0.81094904E-05  0.37023766E-05  0.38452105E-05  0.63321398E-05  0.39975473E-05

 -0.14312213E-06  0.79634446E-07 -0.18389839E-05 -0.42476762E-06  0.72469447E-06
  0.32138990E-06  0.29699561E-06 -0.91902236E-07  0.38116438E-06 -0.60545677E-06
  0.70779607E-06  0.55042200E-06 -0.13929726E-05 -0.11481040E-06  0.48875312E-06
  0.82947664E-07 -0.15479214E-05  0.14167839E-05  0.72757915E-05  0.12912018E-04
  0.12404714E-04 -0.14980540E-04  0.80352266E-05  0.10755443E-04  0.60412524E-06
  0.18628337E-04 -0.70555416E-05 -0.40319912E-06 -0.11877043E-05 -0.19482342E-06
  0.16592205E-05 -0.53909638E-06 -0.10659319E-05  0.33589085E-06  0.12218610E-05
 -0.12849872E-06 -0.15125475E-04 -0.96306473E-05 -0.97882265E-05 -0.14549135E-05
  0.86540594E-06  0.61436511E-06  0.13661091E-04  0.82381071E-07 -0.66564565E-05
  0.18005578E-05  0.10988012E-05  0.10520424E-06  0.15975523E-05 -0.13838811E-05
  0.54599786E-06 -0.21075243E-06 -0.23384949E-05  0.50440776E-07  0.16074004E-05
  0.17148237E-05  0.67000383E-07 -0.14786689E-06  0.18056322E-06 -0.11620188E-05
  0.27174768E-07 -0.19636826E-05 -0.16684263E-06 -0.66169471E-06 -0.37850014E-06
  0.26362445E-06  0.13354307E-05 -0.56129165E-06  0.89755807E-06 -0.96621469E-07
 -0.76337730E-08  0.56434528E-06 -0.58581861E-07 -0.51385312E-06  0.28305034E-05
 -0.28059185E-05  0.16632998E-05  0.30646858E-05 -0.46747443E-06 -0.23343058E-05
 -0.19828097E-05  0.13624799E-05  0.76094615E-06 -0.12743742E-05  0.17716905E-05
 -0.46578366E-06 -0.86983997E-06  0.11736725E-05 -0.60995086E-06 -0.16709240E-05
 -0.59580402E-05  0.11457665E-05 -0.17649728E-04 -0.11686515E-05  0.82599009E-05
 -0.19931225E-04 -0.39290361E-05 -0.29625510E-05  0.43578064E-05  0.32830293E-06
 -0.35218557E-06  0.74830057E-06 -0.61532763E-06  0.43910081E-06 -0.11371888E-05
 -0.14895890E-05 -0.23658502E-05  0.10361545E-06 -0.77520228E-05  0.75642798E-05
 -0.75967158E-05 -0.70031850E-05  0.27446834E-05  0.20452385E-04 -0.88335752E-05
 -0.24756052E-04  0.44842144E-05 -0.47105805E-06 -0.19424746E-05 -0.15762479E-05
  0.11109145E-05 -0.10518922E-05 -0.40927982E-06 -0.73751979E-06  0.62899940E-07
 -0.27794713E-06  0.14282127E-04 -0.61517613E-05  0.38053211E-05  0.93082146E-05
 -0.12680231E-04  0.39107882E-04 -0.92177441E-05 -0.16842669E-06 -0.82833483E-06
 -0.10479856E-05  0.52075173E-06  0.69735721E-07 -0.13624315E-05  0.28971276E-05
 -0.24001711E-05  0.14092567E-05 -0.32711191E-05  0.39883480E-05  0.75137081E-05
 -0.79773041E-05 -0.92129615E-05  0.11547943E-06  0.12168459E-04 -0.17844922E-04
 -0.10626652E-05 -0.43356786E-05  0.53315815E-05  0.24101015E-06  0.59415084E-06
 -0.42289546E-06  0.21740093E-05 -0.14971853E-05  0.29017558E-05 -0.53712823E-06
  0.19644234E-04  0.10802471E-05 -0.44532690E-06  0.10095359E-05 -0.30710225E-06
 -0.15869709E-06  0.40187236E-06 -0.63773177E-06  0.12982277E-05 -0.15422638E-05
 -0.20881180E-06 -0.10424979E-05 -0.24315317E-06  0.29552497E-06  0.97475088E-06
  0.98547681E-07 -0.12969054E-05  0.11883182E-07 -0.14604989E-06 -0.96278812E-06
  0.66195460E-07  0.28868663E-06 -0.47714205E-06 -0.16196212E-05 -0.81301730E-06
  0.23404570E-06 -0.89416023E-06  0.45706037E-06  0.16151576E-05  0.15520571E-05
  0.83415622E-06 -0.15736639E-06 -0.47177578E-06 -0.16022417E-06 -0.41177404E-06
  0.20990880E-06 -0.61766532E-06  0.30097259E-06 -0.10461333E-04  0.10377925E-04
  0.29831099E-04 -0.45396661E-05 -0.10104719E-04  0.61782870E-04 -0.69857447E-05
 -0.18584031E-04 -0.21314378E-05 -0.34796176E-06  0.33779454E-06 -0.21461972E-06
  0.71736539E-06  0.74967003E-07  0.25586741E-06 -0.51716298E-06  0.20756474E-06
 -0.94148221E-06 -0.37052761E-05 -0.41130687E-05 -0.21463925E-04 -0.14984223E-04
  0.35829152E-05 -0.64296220E-06 -0.58068697E-06 -0.60383188E-05  0.51208838E-05

  0.32541025E-06  0.44076840E-06 -0.50893113E-06 -0.67611377E-06 -0.85085456E-08
 -0.91278395E-06 -0.11245013E-05 -0.41571336E-06  0.69312360E-06  0.22260749E-06
 -0.20743467E-05  0.44993815E-06  0.78444925E-07 -0.37316003E-06  0.86103540E-06
 -0.65511871E-06 -0.22123261E-05  0.89903436E-06 -0.10642061E-04 -0.15781233E-04
 -0.24014169E-05 -0.25945823E-04  0.26628602E-04 -0.25545269E-05  0.44853878E-05
  0.87791916E-05  0.17206574E-04 -0.15699004E-05 -0.83061877E-06 -0.66414419E-06
  0.33511766E-06  0.24058087E-06  0.47390827E-07  0.91907879E-06 -0.28519592E-07
  0.62481915E-06  0.68486555E-05  0.79697450E-05  0.14570407E-04  0.54690430E-05
 -0.13213961E-05  0.19609791E-04 -0.67417696E-05  0.25409540E-04  0.99096901E-05
  0.50338306E-06 -0.57864780E-06  0.31385841E-06  0.79333117E-06 -0.23688989E-05
  0.17577711E-05 -0.11028148E-05 -0.85288062E-06 -0.31826807E-05  0.63190831E-06
  0.15800836E-05  0.17968832E-05  0.21258350E-06  0.10159793E-06 -0.16998380E-05
 -0.39063748E-06 -0.44055529E-06 -0.17902668E-06 -0.21510970E-06  0.51070718E-06
 -0.33612871E-06 -0.53222005E-06  0.11086660E-05 -0.28407198E-06 -0.48713639E-06
 -0.92016933E-06 -0.14895964E-05 -0.81625781E-06 -0.85291646E-06 -0.12044287E-05
 -0.14415807E-05 -0.99434082E-06  0.39513423E-05 -0.10177353E-05 -0.17615144E-05
  0.12782689E-06  0.63549183E-06 -0.55344687E-06 -0.35683616E-06  0.84042280E-06
 -0.62159573E-06 -0.26058381E-05  0.40394604E-06 -0.28158407E-06 -0.44261134E-05
 -0.33187947E-06 -0.24678420E-05 -0.81652330E-05  0.49910293E-05 -0.19140385E-05
 -0.27363398E-05  0.63688079E-05  0.20254459E-04 -0.10553220E-05  0.18580433E-06
 -0.26471682E-05 -0.27127133E-05  0.20348194E-07 -0.27900238E-05 -0.24843275E-06
  0.42812155E-06 -0.63954123E-06 -0.11849350E-05 -0.33986833E-05 -0.17375953E-04
 -0.91552883E-05  0.30856821E-04 -0.11725862E-04 -0.80316029E-05  0.98064591E-05
 -0.35211914E-05 -0.26470015E-04 -0.28042670E-06 -0.17531950E-06 -0.16352700E-05
 -0.84388677E-06  0.27382562E-05 -0.21579869E-05 -0.22508288E-06  0.80734476E-06
 -0.24060195E-05 -0.89221834E-05 -0.86606099E-05  0.14348413E-05  0.19699730E-04
 -0.78801630E-05  0.80724431E-05  0.54571050E-05 -0.46434990E-05  0.15000690E-04
  0.11772997E-05  0.52621783E-06 -0.76218893E-06 -0.95997778E-06  0.49102602E-05
 -0.28162527E-06  0.21500748E-05  0.21910865E-05  0.36509545E-05  0.10374344E-05
  0.27996012E-04 -0.17276100E-04  0.11225077E-05 -0.76149500E-05  0.75920150E-05
 -0.12435107E-05 -0.61971689E-05 -0.36286061E-04  0.94483455E-07  0.11755177E-05
 -0.94309734E-06 -0.92623118E-06  0.62499989E-06  0.11663097E-05  0.12898297E-05
  0.10802471E-05  0.30080685E-04 -0.94379712E-07  0.34261432E-05  0.30714902E-05
  0.29875212E-05 -0.14513673E-06 -0.39128660E-05  0.29543345E-06  0.71185003E-06
 -0.36007599E-05  0.37514757E-06 -0.86394372E-06  0.57621640E-06  0.13377206E-05
 -0.50452835E-07 -0.29654044E-05 -0.98646038E-07 -0.10977203E-07 -0.13589896E-05
 -0.11751525E-05  0.14987533E-05  0.39875287E-06 -0.94849026E-06 -0.47308954E-06
  0.62590231E-06 -0.16437446E-05  0.31175334E-06 -0.15571946E-05 -0.99721009E-06
 -0.36862148E-05 -0.20885392E-05  0.10458906E-05 -0.18160112E-05  0.29053003E-05
 -0.34516779E-06  0.79565768E-06 -0.14435647E-05 -0.96062271E-05 -0.22271366E-04
 -0.40602034E-04 -0.51820079E-05 -0.62857327E-05 -0.80976860E-04  0.74450379E-06
  0.28007907E-04 -0.80272011E-05  0.38998186E-07 -0.88196013E-06  0.59817360E-06
 -0.64133497E-06 -0.52708942E-06  0.89711499E-06 -0.18887509E-05  0.10079184E-07
 -0.22519755E-06 -0.20608568E-04 -0.71991189E-05 -0.13840841E-04  0.12512265E-05
 -0.17019255E-04  0.10065123E-04 -0.97656771E-05 -0.22815772E-05  0.71593130E-05

 -0.21797941E-05 -0.54240086E-06 -0.23961773E-06 -0.26327455E-06  0.19859738E-06
  0.48320376E-07  0.12361892E-05  0.85342467E-06  0.90967973E-06  0.56679411E-06
 -0.65985325E-06  0.17728210E-05  0.15163437E-05 -0.15101624E-05 -0.16611510E-06
  0.15665746E-05  0.10221001E-05 -0.11915201E-05 -0.20877840E-04 -0.32661020E-06
 -0.18555363E-05 -0.84353875E-04 -0.41310969E-05  0.26394700E-04 -0.40914804E-05
  0.91598526E-05  0.60351271E-05  0.77126889E-06 -0.82663810E-06  0.19572119E-05
 -0.11448392E-05 -0.20497955E-06 -0.98984278E-06 -0.12952887E-06 -0.47936394E-06
  0.84156255E-06 -0.17152222E-05  0.85766472E-05  0.21694524E-05  0.10452749E-05
  0.42655390E-05  0.12251837E-04  0.13961305E-04  0.52040943E-05 -0.87977926E-05
 -0.15185049E-05 -0.59795777E-06 -0.11040309E-05  0.17298968E-05 -0.12035548E-06
  0.15696611E-06  0.18746446E-06  0.48789539E-06 -0.34974808E-08  0.23879963E-05
  0.14234204E-05 -0.21620509E-06 -0.22478348E-05  0.37330355E-05 -0.93818922E-06
 -0.35732099E-06  0.64681952E-06  0.18881341E-05 -0.10486029E-05 -0.83456209E-07
 -0.48771876E-06 -0.20295149E-06 -0.13370623E-06  0.43245533E-06  0.32029734E-06
  0.24808046E-06 -0.58988114E-06  0.59710185E-06 -0.30482688E-06  0.92368812E-06
 -0.10921395E-05  0.22064759E-05  0.40586580E-06  0.97600862E-06 -0.31494328E-06
  0.44140057E-06  0.11926786E-05 -0.52231187E-06 -0.10036916E-05  0.15970549E-05
 -0.22785129E-05  0.41533052E-06  0.18203323E-06 -0.99318975E-06 -0.59579152E-06
  0.42387780E-05 -0.15870066E-04 -0.66120839E-05  0.12467631E-04 -0.17366833E-04
 -0.75912610E-05  0.16832818E-04  0.28190673E-05  0.14813229E-04 -0.24260451E-05
 -0.37863224E-06  0.47804637E-06 -0.71810165E-06  0.46441138E-06  0.10706484E-05
 -0.10436905E-05  0.11310367E-05 -0.89643827E-06 -0.10932681E-04 -0.29219659E-05
 -0.13608320E-04 -0.40961527E-04  0.17774563E-04 -0.14470574E-04  0.11704537E-04
 -0.14913741E-04 -0.61346807E-08  0.17774850E-05  0.25085197E-05 -0.93974267E-06
  0.28721580E-05 -0.87513404E-07 -0.99348401E-06  0.15452453E-05 -0.10633751E-05
  0.22728187E-06  0.51929645E-05  0.26021455E-04 -0.47008510E-05 -0.16478649E-04
  0.11282003E-04  0.89625619E-06  0.17434133E-05  0.81253080E-06  0.21522992E-05
 -0.18990227E-05  0.21699928E-05 -0.20701793E-05  0.92778599E-06 -0.10266493E-05
 -0.85466234E-06 -0.62203236E-06 -0.11084272E-06 -0.14858041E-05 -0.46301211E-05
  0.52833167E-05 -0.13416076E-04  0.21244583E-05 -0.17876346E-04 -0.43300450E-05
 -0.87230450E-05 -0.61388897E-05  0.15615008E-04 -0.86689993E-06 -0.76405212E-07
 -0.18972893E-06 -0.21737087E-06  0.11313726E-05 -0.33941237E-06 -0.84662933E-06
 -0.44532690E-06 -0.94379712E-07  0.24481443E-04  0.18416930E-05  0.43833248E-05
  0.16755542E-05 -0.63724057E-06 -0.19021108E-05  0.98483137E-06 -0.67337029E-06
 -0.29132770E-07 -0.12901387E-05 -0.69702839E-06 -0.22441424E-05 -0.22753282E-05
  0.48618133E-06  0.22010568E-05 -0.94238223E-06 -0.43348583E-07 -0.12704849E-05
  0.13373090E-06  0.34526591E-05  0.59489885E-06  0.14828108E-05 -0.50095337E-05
  0.43891549E-06 -0.14312748E-05  0.91326715E-07  0.16985027E-05 -0.10359681E-05
 -0.49286370E-06 -0.29551902E-06  0.58023294E-06  0.85978753E-06 -0.14609433E-05
  0.64508687E-07 -0.11184052E-05 -0.83157564E-06 -0.23819918E-05 -0.58402906E-05
  0.16691922E-04  0.18591101E-04 -0.20985973E-05 -0.90468788E-05 -0.19757020E-04
 -0.25552673E-04  0.17713714E-04 -0.22959006E-06  0.36884215E-06 -0.21904072E-07
  0.58500065E-06 -0.70248873E-06 -0.15914767E-06 -0.80909102E-07  0.81327551E-06
  0.91341208E-06  0.66025954E-05 -0.18777962E-05 -0.37373425E-06  0.17495964E-04
 -0.30419360E-05 -0.26593666E-04 -0.17068007E-04 -0.65469487E-05  0.27732305E-05

  0.24407642E-05  0.63598461E-06 -0.33722064E-06 -0.12408878E-06  0.78320450E-06
 -0.52769695E-06  0.68955096E-06 -0.17242468E-06 -0.23650086E-05  0.51148966E-06
 -0.92886563E-06 -0.21735818E-05  0.12153770E-05 -0.80176735E-06 -0.72868958E-06
  0.70971883E-06  0.76014658E-06 -0.94152753E-07 -0.39182067E-04 -0.52834802E-05
 -0.54114210E-06  0.24198394E-04 -0.12671388E-05 -0.15473854E-04  0.20995364E-04
 -0.10949021E-04  0.87677704E-05 -0.76587276E-06 -0.11406150E-06  0.10880534E-05
 -0.19003061E-05  0.33742980E-05 -0.91214871E-06  0.35912574E-05  0.35658493E-06
  0.31155288E-05  0.33958138E-05 -0.80363735E-05  0.16335898E-04  0.88205490E-05
  0.79846304E-05 -0.29617957E-05 -0.39172851E-05 -0.62141064E-06  0.22427651E-04
  0.92714745E-06 -0.33727184E-05  0.12698184E-05  0.10340848E-05 -0.85004889E-06
  0.72633034E-06 -0.19289338E-05  0.84492242E-06 -0.91100216E-06 -0.10392164E-06
  0.10994728E-05  0.12564062E-05 -0.70966804E-06 -0.39690167E-05  0.53504615E-06
  0.25167566E-06  0.12979455E-05 -0.71322360E-06  0.14738076E-06 -0.41078530E-06
 -0.73043541E-06  0.13034948E-05 -0.32388375E-05  0.38176449E-06  0.92801476E-06
 -0.30927867E-06 -0.16595134E-06 -0.50808776E-06 -0.88872938E-06 -0.57405873E-06
 -0.11688534E-05  0.87695343E-05 -0.48792865E-06  0.69320092E-06 -0.74955377E-06
 -0.21843089E-05  0.13846412E-05  0.20941450E-05 -0.76200845E-06 -0.38975299E-06
  0.50484200E-06 -0.10995397E-05 -0.20550273E-06 -0.10773781E-05 -0.35451564E-05
  0.14279880E-04 -0.35887218E-04 -0.81801744E-07  0.26122920E-04 -0.50013089E-04
 -0.26361880E-04  0.25236697E-04  0.15113531E-04 -0.31316542E-04  0.11225531E-05
 -0.34537319E-05  0.38255110E-06  0.21689322E-05 -0.59734019E-05 -0.21324398E-06
  0.61246787E-06 -0.70929991E-06 -0.86836071E-07 -0.21094027E-04  0.60112222E-04
  0.28419434E-04  0.44534108E-04 -0.34212783E-04 -0.33229522E-04  0.51428751E-05
 -0.16245831E-04 -0.53953721E-06  0.42622773E-05  0.19360648E-05  0.14450367E-05
  0.30507948E-06 -0.11651246E-05 -0.41892214E-06 -0.11976848E-05  0.11889508E-05
  0.39057152E-06 -0.17479006E-04  0.40801294E-04 -0.13048363E-04 -0.19033515E-04
  0.13628971E-03 -0.86483952E-05 -0.46258603E-04  0.34500346E-05  0.10778860E-04
  0.65491145E-06 -0.40990895E-05  0.89377763E-06 -0.19011022E-05  0.18826091E-05
  0.19298501E-06  0.16584177E-05 -0.10491018E-05  0.16744215E-05 -0.11472842E-04
 -0.32409368E-04  0.21349227E-05  0.74076764E-06  0.32691631E-05 -0.82322006E-05
  0.20611439E-05  0.62388715E-05 -0.10309670E-04 -0.10359521E-05  0.14208504E-05
  0.74160570E-06 -0.20438175E-06 -0.30101703E-05  0.32241858E-05 -0.54420149E-06
  0.10095359E-05  0.34261432E-05  0.18416930E-05  0.40215077E-04  0.26250860E-05
 -0.18051163E-06 -0.30368295E-06 -0.22270899E-05  0.48232253E-06 -0.53540038E-06
 -0.38257926E-06 -0.11842168E-06  0.13755451E-07  0.13660960E-06 -0.82983061E-06
  0.22024477E-05 -0.11498140E-05 -0.43025946E-06 -0.96483822E-06 -0.21995905E-06
  0.36523872E-05  0.14862593E-05  0.13031827E-05 -0.65112903E-06 -0.39234891E-05
  0.25657520E-05 -0.35367625E-05  0.12398114E-05  0.16166291E-05 -0.21039108E-06
  0.11939575E-05  0.43055367E-06  0.15067074E-05 -0.14321739E-06  0.13729005E-05
 -0.38722209E-06  0.66756113E-06  0.78210059E-06  0.65305906E-05  0.10150442E-04
 -0.41816052E-04  0.18014284E-04 -0.11590988E-04  0.52850738E-04 -0.17150684E-04
 -0.20374824E-04  0.26002675E-04  0.18823463E-06 -0.19737630E-05  0.30220758E-06
 -0.25527322E-05  0.33894217E-05  0.20549230E-06 -0.13813202E-05 -0.55946511E-06
 -0.71729769E-06 -0.36806897E-04 -0.25062382E-04  0.46992200E-04  0.42310431E-05
 -0.16532221E-04 -0.26074916E-04 -0.11360654E-04 -0.32821059E-05  0.70452159E-05

 -0.25478014E-06  0.95974574E-06 -0.44397684E-05  0.22468684E-05  0.11090681E-05
 -0.54224076E-05  0.52774782E-06  0.87071268E-06  0.20166252E-05  0.39336465E-06
 -0.14570403E-06  0.75467058E-06  0.86908399E-06 -0.31922148E-05  0.30659191E-05
 -0.27171371E-06  0.33286406E-06 -0.46009855E-06 -0.19135098E-04 -0.26996693E-04
 -0.43343276E-05 -0.38346888E-04 -0.43410958E-04  0.67332452E-04 -0.89712053E-05
 -0.73018647E-05 -0.66008479E-05  0.92064904E-06  0.28169919E-06  0.24426293E-06
 -0.12072099E-05  0.31801421E-06 -0.16988937E-06  0.77915238E-06 -0.20669660E-05
 -0.87920027E-06 -0.48036213E-05  0.22112726E-04  0.82787028E-06 -0.49224957E-05
 -0.11903313E-04  0.31486368E-04 -0.15042219E-04  0.23619502E-04  0.19058336E-06
 -0.17474869E-05 -0.64228536E-06 -0.90874436E-06  0.66563444E-06 -0.41018850E-06
  0.12189662E-05  0.90218345E-07  0.14526611E-05 -0.20098088E-05  0.49336261E-06
  0.58905338E-06  0.41373043E-05  0.83585562E-07  0.15059119E-05  0.49595162E-06
  0.18175634E-05  0.10797698E-06  0.48544749E-07 -0.88984694E-06 -0.55602005E-06
  0.32049044E-06 -0.17269858E-05  0.94370494E-06  0.25829947E-05 -0.60927823E-06
 -0.81079477E-06  0.78744016E-06  0.40246021E-06 -0.21352178E-05 -0.12868891E-05
 -0.76969086E-06  0.68760135E-06  0.14085113E-05  0.17852166E-06 -0.41245055E-08
 -0.27039449E-06 -0.22001550E-06  0.14057460E-05 -0.53427347E-05 -0.51482146E-06
 -0.95015988E-06 -0.54431332E-06  0.78108101E-06  0.29938960E-05 -0.11303125E-05
  0.17915397E-04 -0.23599708E-04 -0.48321138E-05  0.57895103E-05 -0.22190875E-04
  0.13235049E-04  0.12073536E-04  0.94950233E-05 -0.95307420E-05  0.72309168E-07
 -0.22226609E-05 -0.33844565E-05 -0.59258013E-06 -0.14797290E-05  0.28639456E-05
 -0.15357559E-06  0.71068847E-06  0.17825026E-05 -0.15464691E-04 -0.29035815E-04
 -0.29173382E-04  0.73671070E-05  0.14015755E-04 -0.12996731E-03  0.50241118E-05
  0.17005667E-04 -0.15418142E-04  0.95037137E-06 -0.19544896E-05 -0.14215665E-06
  0.96161649E-07 -0.62834317E-06 -0.29026096E-05 -0.51546121E-06  0.54840079E-07
  0.21604535E-05 -0.19590658E-04  0.34591207E-04 -0.65137901E-05 -0.19416818E-05
  0.30736243E-04 -0.56518849E-04 -0.79627340E-05  0.34285517E-04 -0.17469706E-04
 -0.85970945E-06  0.56730214E-06 -0.58037632E-06 -0.14934832E-05 -0.11118094E-05
  0.18563171E-05 -0.20397465E-05 -0.12050543E-05  0.39122622E-06 -0.19407130E-04
 -0.17365207E-04 -0.81657718E-05  0.12569870E-04  0.25714938E-05 -0.23225032E-04
  0.72178961E-05  0.97063066E-06 -0.23669055E-05 -0.59980099E-06  0.37613261E-05
 -0.64402368E-06 -0.99174829E-06  0.17060397E-05  0.71361558E-06 -0.23159629E-06
 -0.30710225E-06  0.30714902E-05  0.43833248E-05  0.26250860E-05  0.39807676E-04
  0.20767111E-06 -0.84111062E-06 -0.18666077E-05  0.34974333E-06 -0.10973014E-05
 -0.13454079E-05 -0.25612650E-05 -0.89787881E-06 -0.13366476E-05 -0.27086167E-06
  0.19570652E-05 -0.95086023E-07 -0.20016303E-05  0.23751773E-05  0.44466729E-06
  0.14689717E-05  0.49567549E-06  0.12547015E-05  0.19074419E-06  0.13245089E-05
 -0.24946221E-06  0.15250415E-05 -0.14423908E-05 -0.85908878E-07 -0.17390317E-05
 -0.27309143E-05 -0.80484375E-06 -0.32970282E-06  0.18155500E-05  0.37677403E-06
  0.36886753E-06 -0.19775906E-05 -0.10002512E-05  0.12612778E-04 -0.21799256E-04
 -0.25189515E-05 -0.97817842E-05  0.29033576E-04 -0.13581131E-03  0.14414229E-04
  0.33543695E-04 -0.15654054E-04  0.71928586E-06 -0.92108068E-06 -0.11107949E-05
  0.15616086E-05 -0.51828098E-06  0.20851536E-06 -0.13207677E-06 -0.37050912E-07
  0.42297060E-06 -0.16609078E-05  0.36929691E-05  0.49736374E-04  0.48044340E-04
 -0.25557722E-05 -0.51285310E-04 -0.62589651E-05 -0.34691495E-04 -0.24485837E-04

  0.11506745E-05 -0.76587292E-07 -0.77701048E-06 -0.39424015E-05  0.28066033E-05
  0.17904963E-05  0.28658342E-08 -0.69865635E-06  0.18275775E-05 -0.14195661E-05
  0.51217838E-06  0.13672176E-05 -0.25696333E-05  0.32958003E-06  0.21105994E-05
  0.81437684E-06  0.90457841E-06 -0.51235400E-06  0.66669014E-05  0.19864719E-04
  0.89750794E-05  0.28054168E-04 -0.30440233E-04 -0.46913835E-05 -0.12872243E-04
  0.65710423E-05  0.39306615E-06  0.13955213E-05  0.10375863E-05 -0.12694724E-05
  0.11394032E-05 -0.17723443E-08  0.78794084E-08 -0.78566042E-07  0.50784731E-06
  0.59581690E-06 -0.66738468E-05  0.12768515E-04 -0.39075884E-05 -0.14562752E-04
  0.15258690E-04  0.19160821E-05  0.36678342E-05  0.12100777E-04 -0.20907777E-05
 -0.11085002E-05  0.21759119E-07  0.64983863E-06 -0.22923075E-05  0.23378235E-05
  0.26167763E-05  0.81730687E-06 -0.78434395E-06  0.96716241E-06 -0.48556005E-06
  0.15765341E-05 -0.12377071E-05 -0.13639785E-05  0.20938575E-05  0.44965982E-07
 -0.14670416E-05  0.18134871E-06  0.54240891E-06 -0.61098698E-06 -0.80518939E-06
  0.39365774E-07  0.21517336E-05  0.27249265E-06  0.50064007E-06 -0.13127428E-05
 -0.10762972E-06 -0.19834706E-07 -0.11050360E-05  0.14255542E-05  0.93358815E-06
 -0.22340426E-06  0.28155784E-05  0.94754307E-06  0.54961141E-06  0.72593681E-07
  0.18015114E-06  0.17533759E-05 -0.16344324E-06  0.38582597E-06 -0.38494795E-05
 -0.42015050E-06  0.97887840E-06 -0.12278060E-05 -0.21053183E-06 -0.22790771E-05
 -0.82740209E-05 -0.63996058E-05 -0.11961077E-04  0.10438634E-04 -0.49534574E-07
 -0.16220400E-05 -0.25338087E-06  0.66260486E-05 -0.28263919E-05  0.13272219E-06
 -0.35578451E-05 -0.15105846E-05 -0.51900270E-05  0.13232273E-05  0.10984600E-05
 -0.10653326E-05 -0.16046097E-06  0.20259874E-05  0.25043644E-05 -0.10952661E-04
 -0.33111602E-04  0.92503450E-04  0.16252803E-04 -0.41544958E-04 -0.23267394E-05
  0.50015292E-05 -0.20166074E-04  0.31984070E-05 -0.82684490E-07 -0.52752071E-06
  0.24887654E-05  0.15891930E-05 -0.13165257E-05 -0.30605186E-06 -0.66181336E-06
  0.45606380E-06 -0.20386512E-04  0.11913737E-04  0.52567506E-05 -0.26584959E-05
  0.16574425E-04  0.21463325E-05 -0.27155186E-04  0.52269929E-05 -0.13627629E-04
 -0.19036357E-05  0.79703410E-06  0.20723149E-06 -0.19787142E-05  0.18936751E-05
  0.20306975E-05  0.13029699E-05 -0.12577213E-05  0.63656232E-06  0.48043779E-06
  0.12507592E-04  0.65526246E-05 -0.31248722E-05 -0.96345674E-05 -0.76337443E-06
 -0.66227662E-05  0.29259346E-05  0.65348174E-05 -0.68075920E-07  0.10976023E-05
  0.15979044E-05 -0.30542971E-05  0.16629895E-05  0.20676059E-05  0.64615127E-06
 -0.15869709E-06  0.29875212E-05  0.16755542E-05 -0.18051163E-06  0.20767111E-06
  0.42842458E-04 -0.19351592E-04 -0.14158726E-04 -0.34000838E-06  0.31635424E-05
 -0.95535478E-06  0.80600312E-06  0.99081913E-06 -0.67234014E-06 -0.11077183E-05
  0.10836142E-05  0.10499481E-05  0.49877812E-06 -0.18333808E-05 -0.15038017E-05
 -0.86601073E-06 -0.77491696E-06  0.23209078E-06 -0.41284056E-05  0.92565399E-06
  0.22658069E-05  0.27108053E-05  0.42661018E-06  0.71721993E-06 -0.15630961E-05
 -0.35711656E-06  0.53173252E-06 -0.36339095E-05  0.24664142E-05  0.12669388E-05
  0.72702738E-06  0.99036803E-06 -0.72090149E-06 -0.18572854E-04  0.70175196E-05
  0.11569021E-04  0.35215578E-04 -0.23880056E-04 -0.32156856E-04 -0.16506914E-04
 -0.65980928E-05 -0.22701299E-04  0.22210566E-06 -0.30752274E-06 -0.45528734E-06
 -0.26864397E-05  0.19595031E-05  0.44814254E-06 -0.57355340E-06 -0.39490740E-06
  0.73351336E-07  0.80017502E-05 -0.11335618E-06 -0.18268207E-04  0.13367730E-05
  0.87438935E-05 -0.95197470E-05 -0.78928925E-05 -0.56234342E-05 -0.21065070E-04

  0.92095827E-06 -0.31947107E-05  0.10647912E-05  0.27141904E-05 -0.82128737E-05
  0.30580911E-05 -0.52137271E-06 -0.10597397E-05 -0.48836638E-05 -0.17909483E-05
  0.32448384E-05 -0.12688103E-05 -0.11554390E-06  0.16370601E-07  0.26741342E-05
 -0.20432253E-05 -0.26093995E-05  0.20467151E-05  0.48819681E-04 -0.25559805E-04
  0.19659435E-04 -0.56140380E-05  0.89246553E-05  0.20007333E-04 -0.84146899E-05
  0.63455490E-05 -0.79729273E-05 -0.17092977E-05 -0.47146100E-05  0.15892238E-05
  0.10524074E-05  0.15081796E-05  0.15360730E-05 -0.25989763E-05  0.46420752E-06
 -0.35202320E-05 -0.15760052E-04 -0.32911655E-04 -0.98841235E-05  0.41743115E-05
  0.98528334E-05 -0.15606746E-04  0.23604493E-04 -0.84708076E-05  0.25131195E-04
 -0.10332318E-06 -0.11908039E-05 -0.14473947E-05  0.91739045E-06 -0.79060375E-05
  0.21382172E-05 -0.68361887E-06  0.52355968E-06 -0.24279785E-05 -0.36918930E-05
 -0.20547988E-05  0.15546526E-05  0.26631742E-05 -0.95758724E-05  0.15673365E-05
  0.35265092E-05 -0.12005472E-05 -0.37475192E-05 -0.28059248E-06  0.99431081E-06
 -0.12693356E-05  0.44742470E-06  0.89721007E-06 -0.12706049E-06  0.87553581E-06
  0.91224160E-06  0.12312586E-06  0.11483667E-05 -0.11082079E-04 -0.38666620E-06
  0.45603836E-05 -0.15005267E-04  0.19421782E-05 -0.27020299E-05 -0.22052151E-06
 -0.47785997E-06  0.80539885E-06  0.24098953E-05 -0.41990735E-05 -0.16072991E-05
  0.36205426E-05  0.23204293E-05 -0.30196084E-06 -0.78494878E-06  0.40678488E-05
  0.19185748E-04  0.32388256E-04 -0.21204022E-04  0.24586440E-05  0.15505734E-04
 -0.20191230E-04 -0.92000369E-05  0.88815829E-05 -0.17027135E-07  0.89690692E-06
  0.60277333E-05 -0.43645080E-05  0.78264448E-06  0.74123840E-05 -0.13781419E-05
  0.67519361E-06  0.16383969E-05 -0.57784593E-07  0.11343276E-04 -0.59950771E-04
  0.24247980E-04  0.29319644E-04 -0.12882577E-03  0.46449209E-04  0.10952809E-04
 -0.13090564E-04 -0.60601819E-05 -0.11923276E-05 -0.91310350E-05  0.11433158E-05
 -0.67818142E-06 -0.48617817E-06  0.43425147E-05 -0.22462212E-05  0.11682400E-05
 -0.10207233E-05 -0.19595687E-04 -0.17692875E-04  0.72615736E-05 -0.90271361E-05
  0.10015929E-04  0.74582654E-05  0.24800750E-04 -0.15916385E-04  0.26905081E-04
 -0.14313053E-05  0.14519641E-05  0.72227177E-06  0.11941604E-05 -0.85423145E-05
  0.28588545E-05 -0.16777343E-05 -0.10009288E-06 -0.96146742E-06 -0.29927784E-05
  0.50020515E-05  0.17051657E-04 -0.44426174E-05  0.10199595E-03 -0.36258837E-05
 -0.18265013E-04  0.65023883E-06 -0.17777655E-05  0.59905103E-06 -0.39110396E-06
  0.49397946E-06  0.11355838E-05  0.14362748E-05 -0.26895747E-05  0.15972467E-05
  0.40187236E-06 -0.14513673E-06 -0.63724057E-06 -0.30368295E-06 -0.84111062E-06
 -0.19351592E-04  0.71496833E-04 -0.12573995E-04  0.37877069E-05  0.10260082E-05
  0.43559668E-05  0.48419053E-06 -0.28796948E-05 -0.81284392E-06  0.96265570E-06
 -0.23664737E-05  0.29057481E-05  0.11448029E-05 -0.77736327E-06  0.50101831E-06
  0.37459576E-05  0.23413333E-05 -0.47765223E-06  0.16458665E-05 -0.47037887E-06
  0.12450976E-05 -0.47018060E-05  0.12927290E-05  0.33076683E-05  0.41096616E-05
 -0.11688007E-05  0.65033576E-08  0.18347474E-05 -0.54616644E-05 -0.71847089E-06
  0.25158075E-05  0.55702411E-06  0.57846632E-05 -0.10177872E-05  0.27512578E-04
  0.29951235E-05 -0.28802466E-04  0.12706096E-04  0.13291377E-03  0.19337061E-04
  0.15393524E-04 -0.10839326E-04  0.12238066E-06  0.88627301E-06  0.82547871E-06
  0.16683680E-05 -0.92293540E-06  0.41869851E-06 -0.39593541E-06 -0.46049049E-06
 -0.73477613E-06 -0.11783483E-04  0.36147514E-04 -0.12680117E-04 -0.12345729E-04
 -0.41871933E-04  0.25790649E-04 -0.23556248E-05  0.38449682E-05  0.36642074E-04

 -0.96419126E-06 -0.72262183E-06  0.25451388E-05  0.68361048E-06  0.36768304E-05
 -0.24244568E-05  0.34536853E-06  0.14599908E-05 -0.22920810E-06  0.27559368E-05
  0.51860456E-06  0.43663713E-05  0.27093788E-05  0.32367628E-05 -0.78689980E-05
  0.15190242E-05  0.56686644E-06 -0.78119423E-07  0.14382667E-04  0.40319876E-04
 -0.76849317E-05  0.39470390E-04 -0.11463837E-04  0.21916605E-04  0.31212012E-04
  0.13355520E-04  0.85692605E-05  0.61155899E-07  0.19786233E-05 -0.15534263E-05
  0.72452757E-06  0.49899399E-06 -0.31835258E-05 -0.17257093E-05 -0.86313823E-06
  0.22422231E-05  0.16300263E-04 -0.20388053E-05  0.24794809E-04  0.95268691E-05
 -0.37118272E-05  0.48454232E-04  0.57918546E-05  0.27967670E-05  0.25554111E-04
  0.86084048E-06  0.11104785E-05 -0.12690690E-05  0.16790830E-05  0.19312260E-05
 -0.62003764E-05  0.48340305E-06 -0.16047159E-05 -0.13030608E-05 -0.22720792E-06
  0.10171360E-05 -0.18389509E-07 -0.21205610E-06  0.25160030E-05 -0.21383811E-05
 -0.12891742E-05 -0.78213779E-06  0.18011209E-05 -0.35385296E-06  0.72016736E-06
  0.75096046E-06  0.84662050E-06 -0.29771461E-06 -0.20942328E-05  0.14846106E-06
 -0.87875567E-06 -0.11458964E-05 -0.70500967E-06  0.85145594E-06 -0.37596257E-06
  0.34467177E-06  0.31990531E-05 -0.13534902E-05  0.55321471E-06  0.77313180E-06
 -0.96183018E-06  0.32583982E-05  0.44136848E-06 -0.46759713E-06  0.16286800E-05
 -0.12138156E-05 -0.19878087E-06  0.10984558E-05 -0.16366601E-05  0.15431543E-05
 -0.82950182E-05  0.10166689E-04 -0.19509664E-04  0.13970990E-04  0.13494721E-04
 -0.15217551E-04 -0.34802263E-05  0.10344015E-04 -0.22146798E-04 -0.17793360E-05
 -0.37899505E-05  0.52270999E-05  0.19525708E-05  0.10356070E-05 -0.21897136E-05
  0.25430364E-05  0.27454483E-07 -0.66789123E-06  0.30427848E-04  0.21824578E-04
 -0.54094965E-04 -0.35245890E-05  0.32675104E-04 -0.59174050E-04  0.72756200E-05
  0.23413661E-04 -0.37643290E-05 -0.10613361E-05  0.23573558E-05  0.37060112E-05
  0.26056972E-06 -0.61637360E-06  0.12835632E-05  0.20755127E-05 -0.72566162E-06
 -0.27126547E-05  0.21694176E-04 -0.21002442E-04  0.28454475E-05  0.36543331E-04
 -0.35588598E-04  0.60227591E-05 -0.25518283E-05 -0.45631384E-04  0.15305882E-04
 -0.89212785E-06 -0.90334253E-06 -0.78127599E-06  0.11528570E-05  0.11119291E-05
 -0.20286304E-05  0.87415435E-07 -0.81025309E-07 -0.26309034E-05 -0.41400760E-05
 -0.11143533E-04  0.11233954E-04  0.16266804E-05  0.52036894E-06 -0.25277596E-04
  0.15774460E-05  0.14370959E-04  0.16336039E-04  0.63949009E-06 -0.38222212E-05
 -0.25941958E-05  0.25926445E-05 -0.13005180E-05 -0.23441957E-05 -0.16501209E-06
 -0.63773177E-06 -0.39128660E-05 -0.19021108E-05 -0.22270899E-05 -0.18666077E-05
 -0.14158726E-04 -0.12573995E-04  0.53097383E-04 -0.66983507E-07  0.50430302E-06
  0.31217047E-05 -0.11146870E-05  0.71599811E-06  0.41710630E-05  0.10482836E-05
  0.42949444E-05 -0.32576359E-05 -0.17636472E-05  0.32996803E-05  0.65477131E-05
 -0.16661287E-05 -0.55149137E-06  0.64084148E-06  0.18232126E-05  0.10451755E-05
 -0.16041375E-05  0.25661075E-05 -0.55704424E-06 -0.20381319E-05 -0.75301790E-06
 -0.68455724E-06 -0.19205189E-05  0.22358628E-05  0.18427087E-05  0.17184870E-05
  0.56668620E-06  0.73387111E-06  0.41171542E-05 -0.60659446E-05  0.31991199E-05
 -0.29475614E-04  0.12990437E-04  0.16485073E-04 -0.25033431E-04 -0.16945371E-04
 -0.13234661E-05  0.11938211E-04  0.71786006E-06 -0.19772714E-06  0.19432785E-05
  0.32943526E-06 -0.56814247E-06  0.31333335E-05  0.54144038E-06 -0.21316337E-06
  0.87602150E-06  0.45610346E-06  0.12439096E-04  0.26323498E-04  0.50337008E-04
 -0.62554263E-05  0.32424486E-04 -0.70635992E-05  0.10650966E-04 -0.42468756E-04

  0.71336434E-06 -0.15989242E-05 -0.12319257E-05  0.44854297E-06  0.19097185E-05
 -0.96810161E-06 -0.62412823E-06 -0.35895215E-06 -0.13556373E-05  0.15417007E-06
 -0.11329100E-05  0.12255031E-05  0.94779146E-06 -0.37901581E-05  0.79669710E-06
 -0.82529348E-06  0.62299167E-06 -0.30330286E-06 -0.96975945E-05  0.13218056E-04
 -0.11969667E-04 -0.21118765E-04 -0.18429272E-04  0.69542468E-05  0.45112265E-05
  0.55017445E-06  0.17851412E-04 -0.14689672E-05 -0.42132174E-06  0.24802829E-06
 -0.10366735E-05  0.27735596E-06  0.83487820E-06  0.40382292E-06  0.21551340E-06
  0.10283894E-05 -0.48912233E-06 -0.50192105E-05  0.47455396E-05 -0.78592023E-05
  0.86394231E-05  0.28820109E-05  0.10393352E-04  0.12553404E-05 -0.91991134E-06
 -0.64667002E-06 -0.19821747E-05  0.83833169E-06  0.18794768E-05 -0.29282259E-05
 -0.26017414E-06 -0.15091097E-05  0.82829302E-06  0.35770780E-06 -0.56733992E-06
 -0.13986434E-05 -0.48245194E-07 -0.16354145E-05  0.40564183E-05 -0.28739526E-06
 -0.11994664E-05  0.46714456E-06  0.14718246E-06  0.37027505E-08  0.72025880E-07
  0.28861026E-06 -0.92263996E-06  0.11019049E-06  0.10974457E-05 -0.66865004E-06
 -0.33718105E-06 -0.50437231E-07 -0.13651826E-05 -0.76353939E-06  0.63831064E-06
  0.57414003E-06  0.31314565E-07 -0.21643229E-06 -0.13434183E-05  0.45632910E-06
 -0.52319947E-06  0.10622952E-05  0.66557577E-06  0.64651247E-06 -0.55370965E-06
 -0.24941706E-05  0.59735333E-06 -0.20861936E-05  0.35484978E-06  0.51159186E-06
 -0.30263595E-05  0.19649329E-05  0.37651809E-06  0.16161346E-04 -0.30377708E-04
 -0.11271633E-04 -0.10385746E-04  0.38838763E-05  0.52208246E-05  0.93570356E-06
  0.47314128E-06  0.33656571E-06  0.14335292E-06  0.18457662E-05 -0.18769746E-05
 -0.81806901E-07 -0.47835480E-06 -0.36598104E-06 -0.12314800E-04 -0.14579453E-05
 -0.48347008E-05  0.21455774E-06 -0.67558845E-06 -0.21265665E-05 -0.53251324E-05
 -0.88156939E-06  0.86120353E-05  0.19245316E-06 -0.10232820E-05 -0.82586342E-06
  0.51927458E-06 -0.19491808E-05  0.16388031E-05  0.15107540E-05  0.13252646E-05
 -0.89189369E-06 -0.44422457E-05  0.11105413E-04  0.44792948E-05 -0.16094057E-04
 -0.22125241E-05  0.55441873E-05  0.65748094E-05 -0.70590714E-05  0.12161188E-04
  0.64415214E-08  0.73944533E-06 -0.55764033E-06 -0.15706958E-05 -0.34851489E-06
  0.14311758E-05 -0.16459827E-05 -0.86714636E-06 -0.64622412E-06 -0.47953511E-05
 -0.93646757E-05 -0.20693988E-05  0.30079546E-05  0.58914660E-05  0.21784226E-05
 -0.78468628E-05  0.29930981E-05  0.72064507E-05  0.16933651E-05 -0.15280053E-06
  0.63256149E-06 -0.47460960E-06  0.17739358E-05 -0.22335566E-07 -0.24489179E-08
  0.12982277E-05  0.29543345E-06  0.98483137E-06  0.48232253E-06  0.34974333E-06
 -0.34000838E-06  0.37877069E-05 -0.66983507E-07  0.21736343E-04  0.62421981E-06
  0.16160260E-05 -0.28640641E-07  0.30954271E-07  0.12949021E-05  0.27993823E-06
  0.12661836E-05 -0.17396718E-05 -0.11217394E-06 -0.17608780E-06  0.11810185E-06
 -0.39650534E-06  0.51178712E-05 -0.17531116E-05  0.36634775E-05 -0.52909975E-05
  0.11103133E-05 -0.16152408E-05  0.43189923E-06  0.16394814E-05 -0.47082075E-06
 -0.17790582E-05  0.61038798E-06  0.48342456E-06 -0.18584447E-05  0.80516807E-06
  0.19030328E-05  0.45036551E-06  0.26801611E-05  0.68892411E-05  0.19970791E-04
 -0.16511501E-04  0.89175373E-05 -0.43511114E-04  0.59590251E-04  0.43979444E-05
  0.14795741E-05  0.22973845E-04  0.73811984E-06  0.16499506E-06  0.96883007E-06
 -0.33111863E-07 -0.48411601E-07 -0.73729079E-06  0.10565989E-05 -0.10077582E-05
 -0.68643017E-06  0.18935791E-04  0.10373536E-04  0.76041694E-05 -0.12500731E-04
 -0.29237106E-05  0.51573901E-05 -0.46199762E-05 -0.67404100E-05 -0.84064852E-05

  0.60381845E-06 -0.23145983E-06  0.10986760E-05 -0.76778861E-06 -0.88889227E-07
  0.18189136E-05  0.46856193E-06 -0.18474344E-05 -0.11431512E-05  0.12954444E-05
  0.56023326E-06  0.12745869E-06  0.83465378E-06 -0.16186546E-05  0.43898880E-06
 -0.14814058E-05 -0.17629046E-05  0.17669944E-05  0.14679824E-04 -0.11763718E-05
 -0.88839306E-05  0.64019206E-04 -0.26113083E-04  0.25896777E-05 -0.43000960E-05
 -0.96448980E-06  0.21932591E-04 -0.10301334E-05  0.36406871E-06 -0.79423820E-06
  0.10402722E-05 -0.29194632E-07  0.82540274E-07  0.16826024E-06 -0.81682349E-06
 -0.19519076E-05  0.11651834E-04  0.83116872E-05  0.43328596E-05  0.14634790E-04
  0.24764401E-05 -0.25613800E-05  0.30108906E-05  0.16124470E-04  0.14746116E-04
 -0.15989125E-06  0.67969567E-06 -0.12970810E-06 -0.97816197E-06  0.75698856E-06
 -0.14698268E-05 -0.39206301E-06 -0.13289706E-05  0.82958785E-06 -0.10400107E-05
 -0.46585673E-06 -0.89990130E-06  0.12612351E-05 -0.88481988E-06 -0.13301229E-05
  0.71928602E-06 -0.14157562E-05 -0.38248186E-06  0.61665809E-06  0.43868214E-06
 -0.72096657E-06 -0.19529284E-06  0.20943999E-05 -0.10355521E-05 -0.50804687E-06
 -0.13435630E-05  0.43897188E-06  0.20155227E-06 -0.34235351E-06 -0.19167298E-05
  0.10897816E-05 -0.13913971E-05  0.11486232E-06 -0.47643723E-06  0.15108607E-06
 -0.12300455E-05 -0.49066282E-06 -0.95200431E-06  0.45414249E-05  0.48443634E-06
 -0.29389870E-06 -0.40779721E-06  0.11436170E-06 -0.17152757E-05  0.22511491E-06
 -0.16034949E-04  0.81680375E-05 -0.23820132E-05  0.35670874E-05 -0.11378492E-05
  0.78837417E-05 -0.11674097E-04 -0.33886997E-05 -0.21406056E-05  0.66577672E-06
 -0.14416098E-05 -0.40898583E-06 -0.18487682E-06 -0.14963908E-06  0.54619790E-06
 -0.13345672E-06 -0.74933328E-06  0.14984124E-05 -0.59736655E-05 -0.99234275E-05
  0.17726394E-04  0.62667698E-04 -0.11748656E-04 -0.16301201E-04 -0.42355188E-05
 -0.13426664E-04 -0.23850070E-04 -0.20682779E-06 -0.21419750E-05  0.47643456E-06
 -0.35480040E-06  0.94268537E-06 -0.14172619E-05 -0.42890621E-08  0.61108966E-07
  0.79425257E-06 -0.84955642E-05 -0.20025779E-04  0.20203093E-04  0.14544483E-05
  0.65485667E-06 -0.19857554E-04  0.42328930E-06 -0.50471871E-05  0.10111649E-04
 -0.56645943E-06  0.14866412E-05 -0.24284695E-05  0.18417085E-06 -0.84094741E-06
  0.99113851E-07 -0.70225840E-07 -0.38597552E-06  0.14324900E-05  0.50776997E-05
  0.48328705E-05 -0.51706245E-05  0.33110186E-05  0.17490105E-05  0.10685231E-04
 -0.35117920E-05 -0.92996644E-05  0.20409577E-05  0.79562441E-06  0.64258771E-06
  0.11461006E-05 -0.65078121E-06  0.26955237E-06  0.20355571E-06  0.19878138E-05
 -0.15422638E-05  0.71185003E-06 -0.67337029E-06 -0.53540038E-06 -0.10973014E-05
  0.31635424E-05  0.10260082E-05  0.50430302E-06  0.62421981E-06  0.21398449E-04
  0.72655375E-06  0.10918892E-05  0.18780220E-06 -0.17041345E-05 -0.19424135E-05
 -0.29227079E-06  0.34308466E-05  0.40461815E-06 -0.72012103E-06 -0.28050799E-05
  0.32119827E-06 -0.75787239E-07 -0.89518388E-06  0.27518669E-06  0.26333525E-05
  0.26868117E-06  0.74577748E-06 -0.59119530E-06  0.29915597E-05  0.11156940E-05
  0.31622970E-06 -0.16765841E-05  0.51514920E-06 -0.66251976E-06  0.73799946E-06
  0.14784483E-05  0.13960949E-05  0.51521047E-06 -0.12055036E-04  0.86375408E-06
 -0.29589029E-04  0.53971849E-05 -0.12999370E-04  0.10557865E-04  0.94935248E-05
  0.32715447E-05 -0.25484447E-04  0.66672545E-06  0.12166100E-05  0.18097438E-07
 -0.47278986E-06  0.96193275E-06  0.20141911E-07  0.31752363E-06  0.96729821E-07
 -0.79967654E-06 -0.87026614E-05 -0.34541428E-05 -0.16152693E-04 -0.18067879E-04
  0.64669536E-06  0.13761223E-04  0.45361299E-05  0.90000998E-05 -0.71583698E-06

 -0.14767530E-05 -0.11412100E-05 -0.16598395E-06 -0.22735332E-05  0.83160901E-06
  0.55899204E-05 -0.10972491E-05 -0.13290169E-05  0.62590832E-06  0.12532984E-05
  0.12175647E-05 -0.18483512E-06 -0.70359150E-06  0.33828268E-05  0.18399690E-05
  0.39905596E-06  0.57745968E-07 -0.15462266E-05  0.69329676E-06  0.28571152E-04
 -0.11265951E-04  0.41269231E-04 -0.86763468E-05 -0.27927254E-04  0.18987492E-04
  0.26594339E-05  0.24320953E-05  0.61876825E-08  0.19170848E-05  0.66017306E-06
  0.97918272E-06 -0.19425648E-05 -0.16203676E-06 -0.18569066E-06  0.38672454E-06
 -0.71215080E-06  0.82094730E-05  0.75089001E-05  0.30270543E-05  0.77505823E-05
  0.11878237E-04  0.56141157E-05  0.63903859E-06 -0.22206908E-06  0.27987758E-04
  0.53854018E-06 -0.35967407E-06 -0.58800222E-06 -0.44007157E-06  0.14807462E-05
  0.18467557E-07  0.10491464E-05 -0.66697350E-06 -0.24898646E-05 -0.34581900E-06
  0.23239625E-05 -0.13144554E-05  0.35592652E-06  0.78383186E-06 -0.60127812E-06
 -0.63007505E-06  0.11153456E-05 -0.20968246E-05 -0.16137299E-06 -0.47433375E-07
 -0.81901832E-06 -0.17606377E-06 -0.54198479E-06 -0.38911923E-06  0.92920455E-07
  0.11449383E-05  0.85911758E-08  0.60862648E-06 -0.81273135E-07  0.12433427E-05
  0.17365532E-05 -0.11078243E-05 -0.22084518E-05  0.14487315E-06 -0.43929417E-06
 -0.24643739E-05  0.48280029E-06  0.50428129E-05  0.20988310E-05  0.33250527E-06
 -0.64722934E-06  0.31325900E-05 -0.32988483E-07 -0.52561449E-07 -0.13571900E-05
  0.52312481E-05 -0.12184246E-04  0.89291236E-05 -0.70506625E-05  0.71859163E-05
  0.25788671E-04  0.82018889E-05 -0.84365512E-05 -0.20926951E-04  0.74405308E-06
  0.82490068E-07  0.62226322E-06 -0.88251502E-07  0.21834260E-05 -0.81684527E-06
  0.36629044E-06  0.57149982E-06 -0.37077719E-06 -0.50401751E-05 -0.15357754E-04
  0.51652289E-05  0.98096355E-05  0.78927421E-05 -0.42076741E-04  0.89814506E-05
  0.78502937E-05  0.54123675E-05 -0.20468290E-07 -0.76388662E-06  0.98937888E-06
 -0.16839302E-05  0.22907707E-05  0.54612723E-05 -0.74187222E-06  0.38327168E-06
  0.77482886E-07 -0.48764663E-05  0.62858796E-05 -0.27916839E-04  0.28378841E-05
  0.95614692E-05 -0.37963748E-04  0.24321045E-05 -0.90589242E-05  0.17830964E-04
 -0.52282390E-06 -0.18229931E-05  0.17158802E-05 -0.15950642E-05  0.70584496E-06
  0.19808156E-05 -0.20453064E-05  0.11020723E-05 -0.42237721E-05 -0.78784635E-05
  0.25902498E-04 -0.93139959E-06 -0.39050496E-05  0.12489194E-04  0.55719512E-05
  0.20856603E-05  0.11199532E-04 -0.17191944E-04 -0.80711072E-07 -0.18500248E-05
  0.82314865E-07  0.30600713E-05  0.10439368E-05 -0.54980110E-05  0.19967271E-07
 -0.20881180E-06 -0.36007599E-05 -0.29132770E-07 -0.38257926E-06 -0.13454079E-05
 -0.95535478E-06  0.43559668E-05  0.31217047E-05  0.16160260E-05  0.72655375E-06
  0.32833121E-04  0.10099710E-05 -0.10409267E-05 -0.52368278E-06  0.72410027E-06
 -0.32998150E-05  0.30001839E-05  0.96794291E-07 -0.20233396E-05  0.12320156E-05
 -0.19704604E-05 -0.11198967E-05 -0.64995400E-06  0.37892347E-06 -0.23507628E-07
  0.92466178E-06  0.11819452E-05  0.14135532E-05 -0.21209059E-05 -0.76448441E-06
 -0.52511902E-07 -0.61637525E-06  0.16485129E-05  0.16057598E-05 -0.41994973E-05
  0.10471551E-05  0.98167553E-06  0.30280480E-05  0.44089114E-05  0.34257922E-05
 -0.64120064E-05  0.76042630E-05  0.50348415E-05  0.68774171E-04 -0.94041128E-06
 -0.19132801E-04  0.27331257E-04  0.14865398E-05 -0.30379087E-07  0.51592029E-06
  0.48409721E-06 -0.17447431E-05 -0.62610357E-06 -0.73629613E-06 -0.60871587E-06
  0.20878231E-05  0.96105696E-05  0.10483400E-04  0.31761353E-04  0.20644922E-04
 -0.16420976E-04 -0.28453275E-04 -0.16369542E-04 -0.10438829E-04  0.20520147E-04

  0.34592312E-06  0.34241981E-06  0.31404569E-06  0.14676246E-05 -0.15641935E-05
  0.12659500E-06 -0.69152027E-06 -0.63600327E-06 -0.63306610E-07 -0.47029785E-06
 -0.66958256E-06 -0.40190812E-06  0.63085010E-06  0.36791466E-06 -0.85765466E-06
 -0.17585675E-06 -0.21512693E-06 -0.11399620E-05 -0.10978518E-05 -0.17148369E-04
  0.30460839E-05  0.73256734E-05  0.13054195E-05 -0.17806339E-04  0.37940941E-07
 -0.13694528E-04  0.13699240E-05 -0.16088597E-06  0.22963467E-06 -0.85701158E-06
  0.71966899E-06 -0.49002650E-06  0.11840951E-05  0.57443155E-06  0.40397933E-06
 -0.77385613E-09  0.95588856E-05  0.42127675E-05  0.39946393E-05  0.35219673E-05
  0.34565690E-06  0.58103745E-05  0.57266521E-06  0.66842851E-05  0.11224989E-04
 -0.16424948E-06 -0.76748662E-07  0.12278564E-05  0.34083246E-06  0.29992110E-06
  0.43872377E-07 -0.47154987E-06  0.12386646E-06 -0.56249847E-06 -0.53341805E-06
 -0.66893666E-06 -0.79046776E-06  0.46018909E-06 -0.93045292E-06  0.39982399E-06
 -0.12656561E-07  0.13877560E-07 -0.43064473E-06  0.13045380E-05 -0.16227135E-07
 -0.29441767E-06 -0.23015597E-06  0.39456291E-06 -0.10655357E-05 -0.35198804E-06
 -0.47510499E-06 -0.13712313E-06  0.72051731E-06 -0.22521663E-06  0.30782411E-06
 -0.21853009E-05 -0.72456171E-06 -0.57044018E-06  0.14745671E-06 -0.57650032E-06
 -0.11256554E-06  0.23332387E-06  0.17966615E-06  0.19491159E-05  0.55717152E-06
  0.90779789E-06  0.15873120E-06 -0.17566361E-07  0.21810628E-06  0.50772542E-06
 -0.29121602E-05  0.14086377E-04  0.16063416E-04  0.96414974E-05  0.21244228E-05
  0.19944664E-04  0.57252311E-05 -0.11356017E-04 -0.93979179E-05 -0.15434724E-05
  0.22948249E-06 -0.12190271E-06  0.46039649E-06 -0.20757566E-06  0.43845273E-06
  0.96133058E-06 -0.22750196E-06  0.97586776E-07  0.56822324E-05 -0.97171868E-05
 -0.11095393E-04 -0.15280848E-04  0.21497616E-05  0.13953412E-04  0.13010413E-04
  0.25366047E-04  0.13969393E-05 -0.13551285E-05  0.12226398E-05  0.24037622E-07
 -0.24728419E-05  0.19015156E-05  0.73801557E-06  0.72949410E-06  0.60132683E-06
  0.21269785E-06  0.19746988E-04 -0.31540873E-04  0.61457012E-05 -0.23531867E-04
 -0.14898975E-04  0.11284672E-04  0.23935748E-04  0.10874676E-04 -0.75306991E-05
 -0.12329492E-06  0.71262115E-06 -0.15867373E-05 -0.54895973E-07 -0.11167704E-06
  0.27620253E-06  0.62880540E-06  0.99460361E-06  0.14112700E-06 -0.72797342E-05
  0.15903652E-04 -0.13061213E-04  0.24865026E-05  0.31953269E-05  0.74567287E-05
 -0.11613903E-05 -0.42951741E-05 -0.64419250E-05  0.10725354E-06 -0.58492085E-06
  0.97762905E-06 -0.27034487E-06  0.31836933E-06  0.23357046E-06  0.90403676E-06
 -0.10424979E-05  0.37514757E-06 -0.12901387E-05 -0.11842168E-06 -0.25612650E-05
  0.80600312E-06  0.48419053E-06 -0.11146870E-05 -0.28640641E-07  0.10918892E-05
  0.10099710E-05  0.12402545E-04  0.41743501E-06  0.20018811E-05 -0.22292657E-06
  0.11593701E-06  0.17335426E-06  0.46640132E-06 -0.41323755E-06  0.39210485E-06
 -0.48285082E-06 -0.11265763E-05 -0.33827598E-06  0.10027472E-05  0.82449811E-07
  0.91186748E-06  0.34228505E-06 -0.35354065E-06 -0.33356622E-07 -0.12015177E-05
 -0.32959637E-07 -0.95428846E-06 -0.81459776E-06 -0.11488133E-05 -0.29698838E-06
  0.27790227E-06  0.76872608E-06 -0.13640631E-06 -0.57894904E-05 -0.30069455E-05
 -0.25017190E-04 -0.21176112E-04  0.74867948E-05 -0.18052446E-04  0.17956299E-04
  0.25343663E-04 -0.24773137E-04  0.26964169E-07 -0.58123484E-06 -0.76648112E-06
 -0.31483937E-06  0.72258023E-06 -0.74013727E-07 -0.79180002E-07  0.25409674E-07
 -0.63857561E-06  0.49287807E-05  0.90425615E-05 -0.69607432E-05  0.94521189E-05
  0.47940137E-05  0.19293273E-05  0.13512044E-04  0.57895129E-05 -0.16490102E-04

  0.76755939E-06  0.49981853E-06  0.18785681E-06  0.26771350E-06  0.14926958E-05
  0.13274230E-05 -0.38819053E-07  0.12383170E-05  0.10442129E-05  0.36684752E-06
 -0.11833910E-05 -0.49862651E-07  0.15118150E-05 -0.28311967E-05 -0.92223987E-06
 -0.52544805E-06  0.18312163E-06 -0.26127628E-06 -0.72014526E-05 -0.34485783E-05
 -0.62327792E-05 -0.10360789E-04 -0.12054410E-05 -0.61363274E-05  0.19166641E-04
 -0.11331939E-04 -0.52258804E-05  0.10827034E-05 -0.13821212E-06 -0.17587067E-05
 -0.15275535E-05  0.71444538E-06  0.10491112E-05  0.19085774E-05 -0.99612500E-06
  0.73506786E-06  0.11619444E-05 -0.10078843E-04 -0.87961578E-05 -0.79865016E-05
 -0.10795142E-04 -0.39249700E-05 -0.12947354E-04 -0.21919685E-05 -0.11741509E-04
 -0.76545128E-06  0.29817300E-06  0.81296274E-06  0.47813444E-07  0.19242612E-05
  0.73070971E-06  0.86138368E-07  0.92782770E-06  0.15442327E-05  0.88643498E-06
  0.26695891E-06 -0.38048304E-06  0.95442917E-06 -0.30989591E-05  0.61386259E-06
 -0.50388492E-06 -0.77386529E-06 -0.12970137E-06 -0.96226562E-07  0.17911309E-05
  0.18414164E-06  0.93249339E-06 -0.19252914E-05  0.92666054E-07 -0.34757395E-06
  0.87049661E-06 -0.18679542E-06  0.18464382E-06  0.35964801E-05 -0.81658613E-06
  0.27325373E-06  0.31188795E-06 -0.31756206E-06  0.39784364E-06  0.16723739E-06
  0.19552741E-05 -0.40715627E-06 -0.22480091E-05  0.32611332E-05  0.10736765E-05
  0.65322820E-06 -0.40628765E-06 -0.30935276E-06 -0.63812172E-06 -0.17027225E-05
  0.12795510E-04 -0.17165036E-04  0.67969460E-05  0.10646472E-04 -0.11616772E-04
 -0.44238236E-05  0.86272873E-06 -0.17783929E-04  0.14825254E-04  0.74274443E-06
  0.18357699E-05  0.92490397E-06 -0.21915571E-06 -0.30640505E-06  0.18040810E-05
  0.30235989E-06 -0.54237929E-06 -0.18075633E-05 -0.92219296E-05  0.34142297E-04
  0.10007038E-04 -0.16918630E-04  0.19366732E-04  0.34373871E-04  0.85360384E-05
 -0.74450617E-05  0.11745536E-04  0.28494935E-06  0.33671691E-05 -0.12713008E-05
  0.13077880E-05 -0.33737562E-05 -0.49268153E-06 -0.50805837E-06  0.48501993E-06
  0.14206064E-05  0.81702802E-05  0.71345516E-05 -0.62028306E-05  0.19837060E-04
 -0.18386873E-04 -0.22781834E-04 -0.99826909E-05  0.33442538E-05 -0.39463382E-05
  0.32521716E-06 -0.49294749E-05 -0.12845913E-06  0.91989492E-06  0.34008345E-06
 -0.82116073E-06 -0.60034526E-06 -0.55141137E-06 -0.50058738E-08  0.36273081E-05
 -0.13655262E-04 -0.36209372E-05  0.21493516E-05 -0.61495785E-05  0.51848460E-05
  0.12796242E-04  0.10565370E-06  0.70514083E-05 -0.11588359E-05 -0.25042171E-05
  0.86903251E-06  0.42892781E-06  0.34010484E-05 -0.71516552E-06 -0.80070091E-06
 -0.24315317E-06 -0.86394372E-06 -0.69702839E-06  0.13755451E-07 -0.89787881E-06
  0.99081913E-06 -0.28796948E-05  0.71599811E-06  0.30954271E-07  0.18780220E-06
 -0.10409267E-05  0.41743501E-06  0.23381310E-04  0.38125704E-05 -0.25167939E-05
  0.49917328E-05  0.46654606E-06 -0.13467003E-06 -0.20854169E-06  0.32306519E-05
  0.68952111E-06 -0.17154881E-05 -0.55866284E-06  0.54600930E-07 -0.30512101E-06
  0.28192828E-06 -0.18105068E-06 -0.41580502E-07  0.49663455E-06 -0.94214176E-06
  0.37431081E-05 -0.58770482E-06 -0.14944943E-05  0.61766714E-05 -0.43352804E-06
 -0.64186198E-08 -0.34692308E-06 -0.88525860E-06 -0.29677154E-05 -0.25091782E-05
  0.44268907E-04  0.27384406E-05  0.43260976E-04 -0.64152229E-04  0.89430290E-06
  0.13612320E-04  0.54861494E-05 -0.12465180E-05 -0.14289693E-05 -0.63119997E-06
 -0.15445335E-06 -0.91542164E-07 -0.41188517E-06  0.77327699E-06 -0.27959819E-06
 -0.26103066E-06  0.38710213E-04  0.49056031E-04  0.81342527E-04  0.16642737E-03
 -0.14732095E-04 -0.65865321E-04 -0.25211207E-05 -0.25740149E-04 -0.92516717E-04

  0.13536440E-06 -0.83472303E-06  0.44077641E-06  0.37171689E-06  0.10258752E-05
 -0.27230249E-05 -0.19861043E-06  0.50084486E-06 -0.80040057E-06 -0.17529358E-06
  0.16159788E-05 -0.24400648E-05  0.14804249E-06  0.17965464E-06  0.79872956E-06
 -0.57942792E-06 -0.48622959E-06  0.36077498E-06  0.23747538E-04  0.24436630E-04
  0.15318446E-04 -0.26993978E-04  0.11310384E-04  0.16073174E-05 -0.32892098E-05
 -0.14189149E-04  0.85157350E-05 -0.96328119E-06  0.12314420E-06 -0.53283563E-06
 -0.33039298E-06 -0.57619442E-06  0.45454845E-05  0.20284348E-07  0.67574039E-06
  0.39854443E-06  0.11225989E-04 -0.38855682E-05 -0.15549993E-05  0.86109214E-05
  0.49681446E-05 -0.15739845E-04  0.67241165E-05 -0.17097643E-06  0.25191656E-05
  0.10714266E-05  0.10802246E-05 -0.60095011E-06 -0.77532040E-07  0.15798051E-05
 -0.12343703E-06 -0.45300910E-06  0.29434934E-06 -0.37756232E-07 -0.95028121E-06
 -0.51775188E-06 -0.44126263E-06  0.23023233E-06 -0.43938345E-06  0.70599712E-06
 -0.76329002E-06  0.22438739E-06  0.39112145E-06 -0.16732454E-06 -0.51778306E-06
  0.17746858E-05  0.93348095E-07 -0.58923146E-06  0.43791443E-06  0.53112178E-07
 -0.98640930E-06  0.51229322E-07  0.11330813E-06  0.12224269E-05 -0.35480938E-06
 -0.57630931E-08  0.13203188E-05 -0.18162615E-05  0.52284311E-06 -0.13394888E-05
  0.12939811E-05 -0.38221112E-06 -0.51642796E-06  0.15825875E-05  0.25582398E-06
 -0.10781378E-05  0.39117086E-07 -0.22541749E-06  0.13183424E-05 -0.13677351E-05
  0.11309482E-04  0.33191445E-05  0.67766813E-05 -0.84878022E-05  0.66976802E-05
 -0.45735561E-05 -0.82903238E-05  0.17717271E-04  0.64095293E-05  0.10717310E-05
  0.12918156E-05  0.11403704E-06  0.11652745E-05 -0.10368024E-05 -0.10467920E-06
 -0.11095024E-06 -0.14870555E-06 -0.53542168E-06 -0.17394499E-04  0.17693923E-04
  0.36480510E-04 -0.12215041E-04 -0.12035951E-04  0.75169509E-04  0.91716855E-06
 -0.78641018E-05  0.12258295E-04 -0.72397594E-06 -0.21550082E-06 -0.10924822E-07
 -0.47615784E-06  0.20999649E-05  0.17861462E-05  0.57567199E-06  0.11486912E-05
  0.14386505E-05  0.50675868E-05 -0.29123524E-04  0.29577761E-04  0.13317133E-04
  0.14132115E-04  0.10888152E-04 -0.54131214E-05 -0.10855710E-04  0.23669873E-04
 -0.14551103E-05 -0.19778983E-05  0.31619096E-06 -0.16707029E-06  0.14934868E-05
 -0.58218038E-06  0.85124859E-06  0.21264953E-06 -0.73502349E-06  0.57659797E-07
 -0.48149265E-06 -0.65134338E-05  0.19024145E-05  0.12259602E-04 -0.14877006E-04
 -0.18949316E-06  0.93987577E-05 -0.19952357E-05  0.13742896E-05 -0.73155509E-06
 -0.93771683E-06 -0.11419055E-06 -0.58806774E-06  0.31478753E-06 -0.21002720E-06
  0.29552497E-06  0.57621640E-06 -0.22441424E-05  0.13660960E-06 -0.13366476E-05
 -0.67234014E-06 -0.81284392E-06  0.41710630E-05  0.12949021E-05 -0.17041345E-05
 -0.52368278E-06  0.20018811E-05  0.38125704E-05  0.17941995E-04 -0.20920403E-06
  0.24641122E-05 -0.12406162E-05  0.43194128E-06  0.32955032E-06  0.29372842E-05
 -0.42390965E-06 -0.57961949E-06 -0.40825148E-06  0.33092315E-06 -0.43529092E-06
 -0.10570393E-05 -0.19753590E-06  0.13121253E-05 -0.45159206E-06 -0.37523088E-06
  0.47989114E-06 -0.26538125E-05 -0.58809198E-07 -0.15224031E-05  0.27025751E-05
  0.10095135E-06 -0.89954797E-06  0.16357714E-05 -0.52224265E-05  0.58652083E-05
 -0.25298189E-04 -0.52092224E-05 -0.99675641E-05  0.10477079E-03 -0.14343523E-04
 -0.31443519E-04  0.20981541E-04 -0.98957876E-06 -0.12937584E-05  0.24279661E-06
 -0.11053358E-06  0.81202188E-06 -0.34746397E-07  0.15148575E-06 -0.11899667E-06
  0.27680424E-06  0.40359416E-05  0.35067028E-04  0.16033984E-04  0.99258633E-04
 -0.38944894E-04  0.32930059E-05 -0.10648213E-04 -0.84875592E-05 -0.61699477E-04

 -0.89232491E-06 -0.81110001E-06 -0.39068809E-06 -0.41150601E-06  0.10025330E-05
  0.12310801E-05  0.27995100E-06 -0.54435664E-06 -0.12090563E-05 -0.83968354E-06
  0.13308658E-05  0.10831970E-06 -0.17357525E-05  0.31469727E-06  0.13710317E-05
 -0.13489693E-05 -0.10134343E-05  0.92534593E-06  0.17095680E-04  0.25598967E-04
 -0.26880748E-06 -0.37302380E-05 -0.33815707E-05  0.33714493E-05 -0.11730309E-04
  0.32710758E-05 -0.43777634E-05 -0.46495453E-06  0.38292717E-06 -0.84213174E-06
 -0.81226909E-06  0.74684738E-06  0.14399252E-05 -0.39592995E-06  0.49903768E-06
 -0.43734222E-06  0.13019530E-05 -0.81051628E-05 -0.64461755E-05 -0.24531335E-05
  0.12927876E-04  0.12397446E-04 -0.28229473E-05 -0.13703127E-06  0.15915969E-04
  0.14738885E-05 -0.21146762E-08 -0.54271003E-07  0.31251716E-06  0.68795820E-06
  0.27494585E-06 -0.46519800E-06  0.27973966E-06 -0.13373291E-05  0.27407684E-06
  0.35930866E-06  0.86193578E-06 -0.11899907E-06  0.60600102E-06  0.66162189E-06
 -0.38718707E-06 -0.31372631E-06 -0.39380344E-06 -0.17036129E-06  0.37111170E-06
 -0.51158562E-06 -0.46221298E-06  0.70088563E-06  0.12160597E-05 -0.28834481E-06
  0.15157270E-05  0.26350818E-06  0.30659853E-05  0.11231255E-05  0.83694542E-06
  0.30103415E-06 -0.10523826E-05  0.53331738E-06 -0.21154797E-06 -0.11965375E-05
 -0.12353692E-07  0.16507547E-06  0.30599652E-06 -0.79585615E-06  0.10690676E-05
  0.11326291E-06  0.55223974E-06 -0.20625430E-07 -0.58125371E-06 -0.21857472E-05
  0.21124665E-04 -0.74867297E-06 -0.17644395E-04 -0.27906308E-04  0.29825588E-04
 -0.68480317E-05  0.17022749E-04 -0.68812172E-05 -0.97518417E-05  0.15342761E-05
  0.87890363E-06 -0.11113599E-05  0.41349397E-06  0.44530418E-06 -0.14979326E-05
 -0.13616346E-05  0.57579363E-06  0.51415245E-06 -0.14534671E-04 -0.72448973E-05
  0.18432949E-06  0.83692606E-04 -0.13257234E-04 -0.14081375E-04 -0.96361135E-05
  0.95906588E-06 -0.17498448E-05 -0.23756354E-05 -0.26692725E-05 -0.45204759E-06
 -0.67901763E-05  0.46487369E-05  0.21494409E-05  0.46535350E-07 -0.89490673E-06
 -0.47625847E-06 -0.76355425E-05 -0.51017376E-05 -0.93888119E-06  0.13288223E-04
 -0.25304294E-06  0.33252132E-04 -0.35120988E-04 -0.20190510E-04  0.18848032E-04
 -0.26626999E-06 -0.46058403E-06 -0.48153127E-06  0.11301890E-05  0.48534276E-06
  0.59713811E-06 -0.29628645E-06  0.13146874E-05  0.72672083E-06 -0.34776252E-05
  0.16783532E-04 -0.77397902E-05 -0.13952356E-04 -0.54308078E-05  0.25588977E-04
  0.96978054E-05 -0.27348348E-05 -0.76310159E-05 -0.81764325E-06  0.15099816E-05
  0.43240869E-06  0.61143755E-06  0.13198649E-05  0.43780913E-06 -0.12630733E-06
  0.97475088E-06  0.13377206E-05 -0.22753282E-05 -0.82983061E-06 -0.27086167E-06
 -0.11077183E-05  0.96265570E-06  0.10482836E-05  0.27993823E-06 -0.19424135E-05
  0.72410027E-06 -0.22292657E-06 -0.25167939E-05 -0.20920403E-06  0.24644547E-04
 -0.11350063E-04 -0.74055558E-05  0.19965454E-06  0.27823907E-05 -0.17225792E-05
 -0.49339179E-06  0.11809954E-05  0.91087447E-06 -0.69908362E-06  0.11357282E-05
  0.52087578E-06  0.37124280E-07  0.54193871E-07 -0.97811803E-06  0.80131910E-06
 -0.67159915E-06 -0.10084149E-05 -0.34957140E-05  0.51323933E-06  0.11082663E-05
  0.88788081E-06 -0.23959462E-06  0.13471383E-05 -0.82994076E-05  0.14198168E-04
  0.40953624E-05  0.27581142E-04 -0.16181656E-04  0.27558715E-04 -0.23643480E-04
 -0.36809180E-05  0.77358038E-05 -0.39428199E-06  0.19634842E-06  0.10647588E-05
 -0.58383309E-06  0.12796049E-05  0.70848824E-06 -0.39149139E-06 -0.13316809E-05
  0.10623149E-05 -0.20303441E-04 -0.39563187E-04 -0.30903545E-04 -0.70835974E-04
  0.47814513E-05  0.18342846E-04  0.11940709E-04  0.10281907E-04  0.52828179E-04

  0.97296515E-06 -0.14054741E-07 -0.33231982E-06  0.12107207E-05  0.12218292E-05
  0.34339983E-06 -0.14981045E-06 -0.61556803E-07  0.17503252E-06  0.15251134E-05
  0.25789525E-05  0.15003003E-05  0.17168598E-05  0.20808709E-05 -0.15459302E-05
  0.15696358E-07  0.15503513E-05  0.10642881E-05 -0.40390339E-05  0.18799502E-04
  0.98446247E-06  0.59087046E-04 -0.25004305E-04 -0.75099574E-05  0.13928264E-04
 -0.13029644E-04 -0.59053566E-06  0.86030121E-06  0.65905179E-06 -0.42514770E-06
  0.22161723E-05  0.17959148E-05  0.45093225E-07  0.16188155E-05 -0.10246133E-05
  0.92593890E-06  0.55368951E-05  0.24482835E-04  0.64574879E-05  0.12679032E-04
  0.41140479E-04  0.27897496E-05  0.16057746E-04  0.11839723E-04  0.15129535E-04
 -0.10776285E-05 -0.63176837E-06  0.62802625E-06  0.68993224E-06  0.13141948E-06
  0.12544619E-05  0.16544262E-06 -0.41981662E-06  0.11207804E-05 -0.11670824E-05
  0.14058568E-05  0.14069586E-05  0.11537689E-05 -0.15088485E-05 -0.59160578E-06
  0.39551008E-06  0.46493104E-06 -0.34348279E-06 -0.15666156E-06  0.31439076E-06
  0.84616101E-06  0.12121628E-05 -0.25961026E-05  0.19826835E-05 -0.59261271E-06
 -0.11474304E-05 -0.42300858E-06  0.18785843E-06 -0.41703722E-05  0.13000110E-05
 -0.45897904E-07  0.51747920E-05  0.65052461E-06  0.13072148E-05  0.63690967E-06
  0.12431505E-05  0.62939958E-06 -0.15844584E-05  0.27055452E-06 -0.26710400E-06
 -0.12428767E-05 -0.14970473E-05  0.11257021E-05 -0.38659120E-06  0.30966839E-06
 -0.17162003E-04 -0.31791375E-05 -0.67576445E-05  0.34189509E-04 -0.37353562E-04
 -0.17846590E-04 -0.54656944E-05  0.13565089E-04  0.16737639E-04 -0.26174663E-05
 -0.63485779E-05 -0.48367256E-07  0.36770386E-06 -0.15499942E-05  0.98900859E-06
 -0.24617581E-06 -0.12216789E-06  0.31253602E-05  0.17912755E-04  0.28340513E-05
 -0.52693747E-04  0.22588327E-04 -0.31793098E-04  0.16313719E-04  0.39449192E-04
  0.10572900E-04 -0.36115401E-04  0.17569694E-05  0.49133633E-05  0.58298547E-06
  0.68037772E-05 -0.10435106E-04  0.14616414E-05  0.25840083E-07  0.15369183E-05
 -0.81295808E-07  0.49710086E-05 -0.15157703E-04  0.32434626E-05 -0.61759340E-05
 -0.42629299E-05 -0.16651185E-04  0.32236912E-04  0.54571511E-05 -0.15856531E-04
 -0.67305150E-06  0.11861469E-05  0.16898302E-05 -0.18972468E-05  0.16126666E-05
  0.31536395E-05  0.16942453E-05 -0.12698236E-05 -0.14981160E-05 -0.74194781E-05
 -0.30764173E-04  0.14204064E-04  0.10066598E-04  0.62497306E-05 -0.16447023E-04
 -0.21609888E-04  0.11980486E-04  0.25910621E-04 -0.34523469E-06 -0.66568436E-05
 -0.55403519E-06  0.16575449E-05 -0.48895009E-05  0.34059478E-05 -0.43761988E-06
  0.98547681E-07 -0.50452835E-07  0.48618133E-06  0.22024477E-05  0.19570652E-05
  0.10836142E-05 -0.23664737E-05  0.42949444E-05  0.12661836E-05 -0.29227079E-06
 -0.32998150E-05  0.11593701E-06  0.49917328E-05  0.24641122E-05 -0.11350063E-04
  0.38223256E-04 -0.50087312E-05 -0.10634918E-05 -0.30414703E-06  0.58759064E-05
  0.33306314E-06 -0.16603890E-05  0.61195126E-06  0.12070824E-05 -0.46377414E-05
  0.22642441E-05  0.13163935E-06  0.43209331E-06  0.19432819E-05  0.32618759E-05
  0.28794819E-05 -0.86075933E-06  0.24600661E-05  0.24593594E-05  0.12701999E-05
  0.15724269E-05  0.80569008E-06  0.45571541E-06 -0.17544323E-04  0.71348132E-06
  0.15289418E-04  0.61384934E-05  0.35908307E-04 -0.82138965E-05  0.20232309E-04
  0.12276484E-04 -0.26438550E-04  0.99305026E-06 -0.12570718E-05 -0.97650234E-06
  0.14734948E-05 -0.33983044E-05  0.50556153E-06  0.81701856E-06  0.33907725E-06
 -0.39586622E-05  0.44451246E-04  0.53063963E-04  0.96950225E-04  0.16340577E-03
  0.32995346E-04 -0.79719402E-04 -0.26883345E-06 -0.38068514E-04 -0.10424963E-03

  0.13414889E-06 -0.15757794E-05  0.33935323E-05  0.28300301E-06  0.70599341E-06
 -0.26988214E-05  0.25556350E-08 -0.85691432E-06  0.14440811E-05  0.24605503E-06
  0.19078142E-05  0.56004319E-06  0.79096519E-06  0.48979111E-06 -0.25611671E-06
  0.83086185E-06 -0.95024469E-07  0.26279335E-06  0.14442402E-04  0.18003938E-04
  0.96017588E-05  0.37307714E-04 -0.31128184E-04  0.32275391E-04 -0.92024443E-05
 -0.18257365E-04 -0.12894933E-04 -0.17353329E-06 -0.31490491E-06  0.35242536E-05
  0.70274429E-06 -0.35627195E-06  0.93103272E-07 -0.41369967E-07 -0.47380042E-07
 -0.46095193E-06 -0.58371843E-05 -0.22326096E-06 -0.17117766E-04  0.62353365E-05
  0.52330864E-05 -0.15847070E-04  0.93383081E-05 -0.81763525E-06  0.10544016E-05
 -0.12828672E-05 -0.77354005E-07 -0.11821337E-05  0.51602318E-06  0.43354638E-06
 -0.27065674E-05  0.60895628E-06 -0.29840036E-07  0.10863501E-05 -0.19355085E-06
 -0.10454316E-05  0.19893571E-06  0.10207679E-05  0.51274946E-06 -0.11418509E-05
 -0.47945866E-06 -0.25496758E-06 -0.79144314E-08  0.63947192E-07  0.37599998E-06
  0.10181658E-05  0.90666687E-06  0.15986572E-05 -0.10734631E-05 -0.34547132E-06
 -0.76283602E-06  0.96031917E-06 -0.42198469E-06  0.41172024E-06 -0.12122594E-05
  0.14950356E-05 -0.99905007E-06  0.17176826E-06  0.43223869E-06  0.11620720E-05
 -0.20442766E-06 -0.13790463E-05 -0.14368219E-05  0.60780965E-06  0.10038329E-05
  0.17707376E-06  0.21158928E-05 -0.51687300E-06  0.41894759E-06  0.18157925E-05
 -0.32167687E-05  0.14068002E-04  0.25394565E-04 -0.15202701E-05  0.18614807E-06
  0.39028185E-04 -0.11904799E-04 -0.22320322E-04  0.99378605E-05  0.15032035E-06
  0.54152247E-06  0.13396076E-05 -0.11943227E-05  0.10566872E-05  0.44060144E-05
  0.12737778E-05  0.58131819E-06 -0.78132396E-06  0.19350470E-05 -0.12594199E-04
  0.34111232E-04  0.60134659E-05  0.10701298E-04 -0.36730070E-04  0.48809588E-05
  0.17398933E-04 -0.65507793E-05 -0.59496589E-06 -0.79913558E-06  0.39716004E-06
  0.51084268E-06  0.32222863E-05 -0.21933572E-05  0.21940696E-06  0.71187747E-07
  0.22367250E-06 -0.19783182E-04 -0.51670832E-05 -0.11861670E-05  0.16165779E-04
 -0.71476640E-05 -0.41525705E-04  0.23350745E-06  0.29511464E-05  0.46302772E-05
 -0.51869757E-06 -0.14760069E-06  0.14520759E-05  0.13204740E-05 -0.12233578E-05
 -0.30263561E-05 -0.43068448E-06  0.41561798E-07 -0.78713513E-06  0.42366295E-05
  0.29082737E-05  0.17814882E-05  0.14136349E-04  0.14317792E-04 -0.47433116E-04
  0.22851487E-05  0.76622158E-05  0.79050197E-05  0.16958671E-06  0.13739483E-05
 -0.39215226E-06  0.31285287E-06  0.27275362E-05 -0.28880604E-05 -0.74446691E-07
 -0.12969054E-05 -0.29654044E-05  0.22010568E-05 -0.11498140E-05 -0.95086023E-07
  0.10499481E-05  0.29057481E-05 -0.32576359E-05 -0.17396718E-05  0.34308466E-05
  0.30001839E-05  0.17335426E-06  0.46654606E-06 -0.12406162E-05 -0.74055558E-05
 -0.50087312E-05  0.26066113E-04  0.57047473E-06  0.71242983E-06  0.98646307E-06
 -0.27466217E-07 -0.10146338E-06 -0.12847175E-05  0.97307801E-06  0.17632597E-05
 -0.21508298E-05 -0.65066454E-06 -0.16152168E-05 -0.56416052E-07 -0.10736048E-06
 -0.60113079E-06  0.10979155E-05  0.12328356E-05  0.23488435E-05 -0.44881072E-05
 -0.25672629E-06  0.78237961E-06 -0.40456272E-06  0.10912236E-04  0.24960071E-05
  0.23117666E-04 -0.25033783E-05 -0.16197416E-06  0.22468371E-04  0.59392274E-05
 -0.70783645E-05  0.14734086E-04 -0.16045726E-06  0.70368145E-06 -0.51441641E-06
  0.63247554E-06  0.29562727E-06 -0.37278261E-06 -0.19574402E-06  0.98376427E-06
  0.12932346E-06  0.18426939E-04  0.23835687E-04  0.92291036E-05  0.48251925E-04
 -0.42631831E-04  0.64851985E-05  0.87965823E-06 -0.49513156E-05 -0.16362107E-06

  0.10226553E-05  0.68960810E-06 -0.68295910E-06  0.47292222E-06 -0.30991743E-06
 -0.34527741E-06 -0.64023942E-06 -0.19811310E-06 -0.79092961E-06  0.10276224E-05
 -0.27276755E-06  0.12964678E-05 -0.11773291E-05 -0.23515188E-06  0.14596974E-05
  0.60771653E-06  0.58976466E-06  0.15491179E-05  0.17728005E-05  0.20108749E-04
  0.16286217E-05  0.25138025E-04 -0.15576532E-04  0.10044452E-04 -0.98260955E-05
  0.11703474E-04  0.44771480E-05 -0.94210524E-06 -0.15104875E-05 -0.86273500E-08
  0.21866416E-06 -0.11241774E-05 -0.95134442E-06  0.26864317E-06 -0.98183830E-06
 -0.27518736E-06 -0.32450102E-05  0.15335480E-05 -0.26788959E-05 -0.27712391E-05
  0.49045762E-05 -0.10488226E-04  0.41846777E-05 -0.76012776E-05  0.21123813E-05
 -0.10649165E-05 -0.85723581E-06 -0.17159581E-06  0.41618941E-06  0.11579013E-06
 -0.86275929E-07  0.12518454E-07  0.88599504E-07  0.84432629E-06  0.16391131E-06
 -0.17497751E-06 -0.55944888E-06  0.97002666E-06 -0.23366315E-06 -0.74632756E-06
 -0.73322217E-06 -0.29478344E-06 -0.82971538E-07  0.36571138E-06 -0.32259085E-06
  0.45155257E-06 -0.82031043E-06  0.14726768E-06  0.14634575E-06 -0.74426075E-06
 -0.63375033E-06  0.23339999E-06  0.33510337E-06  0.31003126E-05 -0.29847333E-06
  0.12421412E-06  0.16400957E-05 -0.10398031E-06 -0.76769266E-07 -0.20440943E-06
 -0.15258653E-06 -0.90603323E-06 -0.65487669E-06 -0.31185228E-06  0.45745075E-06
 -0.38979291E-05  0.54198524E-06 -0.47940412E-06 -0.84841805E-06  0.86072088E-06
  0.19772433E-05 -0.18994662E-04 -0.34905661E-05  0.14891593E-04  0.82786703E-05
 -0.13782288E-04 -0.93875626E-05 -0.26336210E-05  0.14631640E-04  0.17214705E-05
  0.11930152E-05 -0.25513162E-06  0.46988648E-06  0.24394830E-07  0.92749891E-07
  0.76132016E-06  0.11236715E-05 -0.66444085E-06 -0.82488280E-06  0.14603379E-04
  0.17709022E-04 -0.98236209E-05  0.11236005E-04  0.98897563E-05 -0.31843282E-05
 -0.14235847E-04  0.15159761E-04  0.70216726E-06  0.13437145E-05  0.30411078E-06
 -0.37961997E-06  0.12106686E-05  0.75239890E-06 -0.45561552E-06  0.25930288E-06
  0.77456850E-06  0.55234028E-05  0.22433044E-05 -0.53226530E-05 -0.28549462E-04
  0.20804107E-04  0.51245390E-06 -0.14368878E-05  0.13431713E-05 -0.61091151E-05
 -0.13288829E-06 -0.19726866E-05  0.18283334E-05  0.87045006E-07 -0.19195790E-05
  0.56263895E-06 -0.60455229E-06  0.51301071E-06 -0.83542625E-08  0.22742420E-05
  0.79027174E-05  0.20959213E-05  0.49557802E-05 -0.18351045E-04  0.17755996E-05
 -0.76808347E-05  0.25330671E-05 -0.12524716E-04 -0.11268834E-05 -0.69857095E-06
 -0.40474442E-06 -0.60724497E-06 -0.97924601E-07 -0.55716889E-06 -0.42108036E-07
  0.11883182E-07 -0.98646038E-07 -0.94238223E-06 -0.43025946E-06 -0.20016303E-05
  0.49877812E-06  0.11448029E-05 -0.17636472E-05 -0.11217394E-06  0.40461815E-06
  0.96794291E-07  0.46640132E-06 -0.13467003E-06  0.43194128E-06  0.19965454E-06
 -0.10634918E-05  0.57047473E-06  0.12769615E-04  0.66131690E-06  0.24972954E-05
  0.28212160E-06 -0.47453021E-06  0.12794370E-05 -0.60537455E-06  0.77106027E-06
 -0.29896979E-06 -0.15028421E-05  0.56937181E-06 -0.13604094E-05 -0.13160244E-05
 -0.19535439E-05  0.22164546E-06  0.67827481E-06 -0.75169605E-07 -0.92854467E-07
  0.23314136E-05 -0.23654802E-06 -0.14194768E-06  0.94219043E-05 -0.23826909E-04
  0.12302694E-04 -0.11049897E-04  0.49464806E-05  0.30291559E-05 -0.56138316E-06
  0.36031041E-05  0.69879390E-05 -0.57595913E-06 -0.60009276E-06  0.47440114E-06
  0.25828553E-06  0.58779564E-06 -0.35432382E-06 -0.47453119E-06  0.61499439E-06
  0.34384328E-06 -0.18678716E-04  0.26186599E-05  0.47572363E-05  0.48847685E-05
 -0.12574064E-04  0.12710699E-04  0.13505309E-04  0.30594560E-04  0.10707904E-05

  0.12387770E-05  0.35682104E-06 -0.58010567E-07  0.49025098E-06  0.50135118E-06
 -0.12944209E-05 -0.22106728E-07 -0.10392402E-05 -0.12577080E-06  0.11159001E-06
  0.12801373E-05 -0.22859607E-06 -0.58988681E-06  0.13043463E-06  0.56354050E-07
  0.45782335E-06 -0.67052067E-06 -0.15329611E-07  0.28155260E-05  0.19174359E-04
 -0.53677720E-05  0.10425385E-04 -0.59966420E-06 -0.37705646E-05  0.14855093E-05
  0.82997764E-05 -0.19820869E-05  0.68192139E-06  0.31152323E-06 -0.73179875E-06
 -0.15172856E-06 -0.35783161E-06  0.90781184E-06 -0.32288881E-06 -0.51750470E-06
  0.77076928E-06 -0.53655377E-05  0.34666216E-05  0.38237439E-06 -0.71814578E-05
  0.93141050E-05  0.18246339E-04 -0.89875869E-06  0.16844826E-05  0.14019012E-04
  0.31952313E-06  0.23685488E-06 -0.60517104E-06  0.84044360E-06 -0.84951619E-07
 -0.15726442E-06  0.52265544E-07 -0.67527152E-06  0.25771552E-07  0.84383542E-06
  0.49328158E-06  0.50533020E-06 -0.69601245E-06  0.25303440E-06 -0.20025473E-06
 -0.10184725E-05 -0.10443781E-05  0.11403048E-07 -0.19376953E-06 -0.10169892E-06
 -0.12381380E-06  0.13298967E-05 -0.75595342E-06 -0.42062928E-06  0.22696364E-06
 -0.67074201E-06 -0.50810518E-06  0.89155436E-06  0.58838672E-06  0.42485862E-06
 -0.35676291E-06  0.80547028E-06  0.82023268E-07  0.39272263E-06  0.10655919E-06
  0.95537096E-06  0.21793341E-06 -0.95645930E-06 -0.17655371E-05  0.38552365E-06
 -0.63965384E-06 -0.73645769E-06 -0.35519037E-06 -0.37030336E-06  0.14445961E-06
  0.34676207E-05  0.21757584E-05  0.78810496E-05 -0.91464206E-05  0.17689886E-04
 -0.26902817E-04  0.55637461E-06  0.50846692E-05  0.67806792E-05 -0.76175271E-07
 -0.73120687E-06  0.18595895E-06  0.19921457E-06 -0.11968031E-05  0.13372706E-05
  0.70995952E-07  0.17632898E-06  0.76179084E-06  0.66231948E-05 -0.56143852E-05
 -0.32282389E-05  0.39415666E-04 -0.64908880E-05 -0.58082061E-05 -0.10767802E-05
  0.50318218E-05 -0.31143580E-06 -0.80436488E-06  0.16411603E-06 -0.89468371E-06
 -0.94264510E-06  0.14128007E-05 -0.30317743E-06 -0.20025196E-06 -0.15549924E-05
 -0.64050439E-06 -0.64356867E-05 -0.36760408E-05 -0.10946067E-04 -0.66407766E-05
 -0.12303393E-05  0.67884587E-05 -0.24543043E-05 -0.11009033E-04  0.13195890E-05
  0.32666885E-07 -0.91705012E-06  0.19913449E-06  0.36619433E-06  0.23085342E-06
  0.96068054E-07  0.63112989E-07 -0.36887853E-06  0.36242301E-06 -0.60957602E-05
  0.22878393E-05 -0.16208389E-06 -0.11920564E-05 -0.60049532E-05  0.11897610E-05
  0.23701806E-05  0.98394463E-06  0.39613117E-05  0.20113435E-06  0.10917164E-05
 -0.56104054E-06  0.50441337E-06  0.12667699E-06 -0.69929616E-06  0.30351954E-06
 -0.14604989E-06 -0.10977203E-07 -0.43348583E-07 -0.96483822E-06  0.23751773E-05
 -0.18333808E-05 -0.77736327E-06  0.32996803E-05 -0.17608780E-06 -0.72012103E-06
 -0.20233396E-05 -0.41323755E-06 -0.20854169E-06  0.32955032E-06  0.27823907E-05
 -0.30414703E-06  0.71242983E-06  0.66131690E-06  0.11432226E-04  0.46978841E-06
  0.15833527E-07 -0.37210850E-07 -0.51359308E-07 -0.32657993E-06  0.62674783E-06
 -0.13096681E-05  0.62166680E-07 -0.12102682E-05 -0.12587946E-05  0.94413155E-07
 -0.68204474E-06 -0.60432877E-06  0.10024905E-05 -0.55040095E-06  0.10866572E-05
 -0.36942256E-06 -0.14420144E-05  0.16528791E-06  0.25001691E-05 -0.57344083E-05
  0.79910098E-05  0.46188746E-05 -0.11597750E-05  0.10906675E-05 -0.73956493E-07
  0.75991130E-05  0.11069565E-04 -0.67836824E-07 -0.15257185E-06 -0.65124929E-06
 -0.14655111E-05 -0.52066809E-07  0.10617158E-05 -0.49575804E-06 -0.91394449E-06
 -0.39894716E-06 -0.79260371E-05  0.28915363E-07  0.87177684E-05  0.13200093E-04
 -0.75659127E-05 -0.42785958E-05  0.24194279E-04  0.11910491E-05  0.77840806E-05

 -0.44048137E-06 -0.10138286E-05  0.13010471E-07  0.83021612E-06  0.78112378E-06
 -0.35638127E-06 -0.16100713E-05  0.35284109E-06 -0.17186441E-06  0.12865182E-05
 -0.29937876E-06  0.22098335E-05  0.33283183E-06  0.15092123E-05  0.37587159E-07
  0.11406169E-05  0.68029489E-06 -0.76576232E-06 -0.56766717E-05 -0.12402297E-04
  0.23550800E-05  0.11934836E-04 -0.12378193E-04  0.13879520E-04 -0.12160157E-04
  0.12160359E-04 -0.24596720E-05  0.89327645E-06  0.62864293E-06 -0.39579189E-06
 -0.68777775E-06 -0.75172352E-06  0.10180396E-05  0.27424687E-07 -0.21459685E-05
 -0.14566208E-05  0.12761233E-05  0.13106274E-04 -0.13925512E-04  0.71630927E-08
 -0.47667268E-06  0.54176985E-05 -0.81209664E-05 -0.40011212E-05  0.18306474E-04
 -0.97796477E-06 -0.40960847E-06 -0.21243259E-05  0.20865462E-07  0.82773902E-06
  0.92598504E-06  0.88660668E-06 -0.30111475E-07  0.67464773E-06 -0.18967464E-06
 -0.18268669E-05  0.10864548E-05  0.79000750E-06 -0.17782339E-05 -0.11543744E-05
 -0.10914127E-05  0.19714290E-06 -0.67990894E-06  0.62276598E-06  0.29095723E-06
  0.55214154E-06 -0.28824201E-06 -0.66877243E-06  0.61601135E-06  0.24240676E-06
 -0.53351877E-06 -0.10231418E-05  0.33570443E-06 -0.53352203E-06  0.96073120E-06
  0.63230677E-06 -0.94745870E-07  0.41491051E-07  0.81136169E-06  0.77495336E-06
 -0.74033896E-06  0.40873628E-06  0.61705037E-06 -0.16778790E-05  0.22973815E-06
  0.34438259E-06 -0.89528857E-06  0.11198515E-05 -0.96008117E-07  0.20199252E-06
  0.53783075E-05 -0.32632293E-04 -0.12951053E-04  0.13586915E-04  0.30081600E-05
 -0.83142225E-05  0.79846887E-05 -0.68901291E-06 -0.15307962E-04 -0.13295085E-05
 -0.80001877E-06  0.11141524E-05  0.64901052E-06  0.20524316E-05  0.14568922E-05
  0.58793348E-06  0.94638435E-06  0.23053405E-06  0.91400504E-05  0.24792082E-05
 -0.10301186E-04 -0.12360624E-04 -0.47774600E-05  0.43401755E-05  0.17526053E-04
  0.81645315E-05  0.68136973E-06  0.13144692E-05  0.27423178E-05  0.17439430E-05
  0.82951549E-06 -0.29744945E-06  0.17214878E-05  0.87794910E-06  0.62676361E-06
 -0.20489244E-05 -0.38366221E-05  0.62508530E-05 -0.85349354E-05 -0.30033010E-06
 -0.30756982E-05  0.94595473E-05  0.48680938E-05 -0.21242202E-04 -0.13726498E-04
  0.15552512E-05 -0.49771946E-06  0.73373487E-06 -0.11716798E-05 -0.53337348E-06
  0.41377444E-05 -0.45045348E-06  0.70388523E-06 -0.21370015E-05 -0.11804517E-04
  0.58405464E-05  0.13317936E-04  0.26294569E-05  0.10221448E-06 -0.12028868E-04
 -0.13155636E-04  0.10244514E-04 -0.19245636E-04 -0.94445625E-06 -0.35117949E-05
 -0.19258279E-05  0.13623938E-05  0.11556523E-05 -0.16831202E-05 -0.69410902E-06
 -0.96278812E-06 -0.13589896E-05 -0.12704849E-05 -0.21995905E-06  0.44466729E-06
 -0.15038017E-05  0.50101831E-06  0.65477131E-05  0.11810185E-06 -0.28050799E-05
  0.12320156E-05  0.39210485E-06  0.32306519E-05  0.29372842E-05 -0.17225792E-05
  0.58759064E-05  0.98646307E-06  0.24972954E-05  0.46978841E-06  0.20924792E-04
  0.91361573E-06 -0.15449045E-05  0.17001097E-05  0.12730589E-05  0.14021790E-06
 -0.18951794E-08 -0.68733964E-06 -0.61101474E-06 -0.21786288E-05 -0.83900495E-06
  0.79354891E-06 -0.63292463E-06  0.71140852E-06  0.25108192E-05 -0.52194540E-06
  0.18865975E-05 -0.10932707E-05  0.32532241E-05  0.15217737E-04 -0.23019281E-04
  0.14613282E-04 -0.15931003E-05  0.35413889E-04 -0.32128265E-04 -0.14431567E-05
  0.27280084E-04  0.15396656E-06  0.13407348E-06 -0.93844854E-06 -0.90548135E-06
  0.10631360E-05 -0.15549922E-06  0.49660460E-06  0.40591422E-06  0.30722495E-06
  0.16786998E-05  0.26892776E-04  0.52549800E-04  0.85222352E-04  0.17284723E-03
 -0.46451713E-04  0.21504256E-04 -0.10523802E-04 -0.27299855E-05 -0.81837362E-04

  0.98195693E-06  0.92779304E-06 -0.51645083E-06  0.19938759E-05 -0.25597849E-05
 -0.97354579E-07  0.30191011E-06  0.12568755E-07 -0.19833160E-05 -0.69545955E-06
 -0.81805173E-06 -0.25869588E-05  0.14380712E-05 -0.13654614E-05 -0.20149591E-05
 -0.52927796E-07  0.32911059E-06  0.11810560E-06 -0.29520569E-04 -0.53256001E-04
 -0.13533978E-04  0.64207382E-04 -0.26188832E-04 -0.65669435E-05  0.17052920E-04
  0.24301992E-04 -0.10197726E-04 -0.72481939E-06 -0.13349779E-05 -0.27909490E-06
 -0.86111028E-06  0.60015320E-06  0.16694105E-05  0.13542819E-05  0.18022940E-05
  0.31004191E-06 -0.61926440E-05 -0.12795700E-06 -0.64747654E-05 -0.62919476E-05
 -0.28537867E-04 -0.15279906E-05 -0.21159112E-04 -0.79065824E-05 -0.12941655E-04
 -0.88161583E-06 -0.10313968E-05 -0.11385763E-05 -0.21587610E-06  0.13347624E-05
 -0.89513071E-06  0.47191119E-06 -0.93657102E-07  0.87559739E-06  0.30851317E-06
 -0.93950219E-06 -0.10656848E-05  0.15469822E-06 -0.15532089E-05  0.99447901E-06
  0.27277302E-05 -0.14701758E-06 -0.14586400E-05  0.13812926E-05  0.45713196E-06
  0.21358722E-06 -0.25806202E-05  0.63386903E-07  0.12524394E-06  0.19443016E-06
 -0.44614550E-06  0.21141459E-06  0.89713354E-06 -0.10530720E-05 -0.10779387E-05
 -0.11444512E-05 -0.96441841E-07 -0.12908086E-06  0.23265003E-06 -0.23147010E-06
 -0.16029237E-06 -0.36842850E-06  0.15456624E-05  0.10502049E-05 -0.58203397E-06
  0.57534667E-06  0.28698074E-07  0.10908222E-06  0.87749326E-06  0.14910168E-05
  0.72842132E-06 -0.51300726E-05  0.18908506E-04  0.99637448E-05 -0.15634521E-05
  0.25541832E-05 -0.82087543E-05 -0.87245804E-05  0.14890234E-04  0.50705269E-06
 -0.15599677E-06 -0.96995404E-06 -0.20169132E-05 -0.79838026E-06  0.41185921E-05
 -0.20709903E-06 -0.64359596E-06  0.50365244E-06 -0.94454682E-06 -0.66641087E-05
 -0.24863240E-04  0.19045285E-04 -0.23993313E-04  0.23327186E-04 -0.10507019E-04
 -0.28541645E-04 -0.51346707E-05  0.96765534E-06  0.28418762E-06 -0.82454097E-06
  0.31441815E-06 -0.13554370E-05 -0.64930060E-06 -0.71750162E-07  0.87699961E-06
  0.30648300E-06  0.33467016E-05 -0.12959247E-05 -0.11931797E-04  0.12976942E-04
  0.30316109E-04 -0.21753100E-04 -0.50662906E-05  0.10019145E-05 -0.84193079E-05
  0.11560933E-05 -0.45767973E-06  0.64883634E-06 -0.38659356E-06 -0.37827362E-06
  0.43028826E-06 -0.75685726E-06 -0.11705811E-05  0.10930881E-05 -0.18740550E-04
 -0.10802133E-04  0.86186943E-05 -0.79423645E-05  0.14134307E-04 -0.63668397E-06
  0.14683500E-05 -0.21177299E-04 -0.47881489E-05 -0.18079512E-05 -0.46602625E-07
 -0.84065475E-06  0.25478022E-05 -0.98870938E-06 -0.13595121E-05 -0.81572609E-06
  0.66195460E-07 -0.11751525E-05  0.13373090E-06  0.36523872E-05  0.14689717E-05
 -0.86601073E-06  0.37459576E-05 -0.16661287E-05 -0.39650534E-06  0.32119827E-06
 -0.19704604E-05 -0.48285082E-06  0.68952111E-06 -0.42390965E-06 -0.49339179E-06
  0.33306314E-06 -0.27466217E-07  0.28212160E-06  0.15833527E-07  0.91361573E-06
  0.25145024E-04  0.10709097E-05  0.29055684E-05 -0.14295510E-05  0.37607212E-06
 -0.26236468E-06 -0.89556115E-06 -0.81741971E-06  0.71420889E-06  0.39235748E-06
  0.61697859E-06  0.13295732E-05 -0.20394278E-05  0.85149132E-06 -0.34681213E-06
  0.18426466E-06 -0.21421175E-05  0.16365261E-05 -0.13233456E-05 -0.19534656E-05
 -0.26129387E-04  0.77960605E-05  0.12300374E-04  0.70039963E-05  0.59682655E-05
  0.12341120E-04  0.37994991E-06  0.16707900E-05  0.10612767E-05 -0.14825791E-05
  0.20992330E-05 -0.40130359E-06  0.81509957E-07 -0.44555738E-06  0.59518687E-06
 -0.35682230E-06  0.34320841E-05  0.79983768E-05  0.15272981E-04 -0.20195075E-04
 -0.43815693E-05  0.22603257E-05  0.18275753E-04  0.51421371E-06  0.10610310E-04

  0.64124940E-06  0.23303326E-05  0.27371470E-05  0.25644562E-05  0.32132748E-05
 -0.32092020E-05  0.13245420E-05 -0.22758854E-05 -0.42331843E-05 -0.14716868E-05
 -0.24927339E-05  0.89299276E-06  0.29671391E-06 -0.40536522E-05  0.26115032E-05
 -0.27714328E-05 -0.51288278E-06  0.47532039E-06  0.45098338E-04  0.54593424E-04
 -0.19828271E-04 -0.22999672E-04 -0.41807756E-04  0.11397521E-04  0.19955306E-06
 -0.16575865E-05  0.11258094E-04 -0.70830200E-06 -0.39717229E-05  0.64843165E-06
  0.48771909E-06 -0.18314533E-05 -0.20611535E-05  0.65850193E-06  0.58526595E-06
  0.22065407E-05  0.23579198E-05  0.11385718E-04  0.21722045E-04  0.74103978E-05
  0.13094033E-04 -0.16243730E-04  0.41148921E-05  0.51876349E-05  0.80104955E-05
 -0.11002581E-05  0.69075578E-06 -0.19514036E-05  0.84719745E-06 -0.39478519E-05
  0.26467406E-05  0.14120397E-06  0.10450413E-05  0.55098571E-06  0.32404024E-06
  0.48740804E-06 -0.60637478E-06 -0.11334994E-05  0.94272282E-05 -0.31758005E-05
  0.46673605E-06 -0.52823115E-06 -0.39590255E-07  0.12104828E-06  0.42036657E-05
  0.12074085E-05  0.40312102E-06  0.36129365E-05 -0.16179859E-05 -0.24309500E-05
  0.15527012E-06  0.33789828E-06 -0.27226374E-06  0.24628109E-05 -0.18062565E-06
  0.12201600E-05 -0.61832255E-06  0.12918828E-05 -0.17080089E-05  0.15888240E-06
 -0.20521118E-05 -0.44088971E-06 -0.15691250E-05 -0.12290562E-05 -0.31826339E-06
 -0.71654649E-05  0.41724402E-05 -0.12209899E-05 -0.47403049E-06  0.14052160E-05
 -0.22398178E-06  0.17810091E-04 -0.69127588E-05 -0.16695788E-04 -0.50942015E-05
  0.32329882E-04 -0.12107955E-04  0.34135312E-05 -0.97529240E-05 -0.62249103E-07
  0.10256190E-05  0.31858173E-06  0.18832106E-05  0.85042568E-06 -0.22777738E-05
  0.14690125E-06  0.46630071E-06 -0.19649032E-05  0.18668776E-04  0.13254151E-04
 -0.58326703E-05 -0.27605429E-04  0.26196218E-05  0.17053887E-04  0.10766321E-04
  0.86421117E-05 -0.20597296E-04  0.58202740E-06 -0.46351925E-05 -0.11890968E-06
 -0.10397310E-05 -0.12624255E-05  0.12454890E-05 -0.15973607E-06 -0.59772139E-06
 -0.19507795E-05  0.19756417E-05  0.19081442E-04  0.53105394E-05  0.41141580E-04
 -0.79097509E-04 -0.57719248E-05 -0.14470002E-04 -0.20371152E-05  0.46201632E-05
 -0.94026450E-06 -0.98616710E-06 -0.14787833E-06 -0.35066724E-06  0.15445012E-06
  0.14085693E-05 -0.15792065E-05  0.61441609E-06  0.16599782E-06  0.12242251E-05
 -0.16709733E-05 -0.26487311E-05  0.81164246E-05 -0.68346473E-05 -0.64506082E-05
 -0.11828592E-05  0.59580087E-06  0.60287809E-05  0.16271450E-06  0.58194555E-06
  0.17408069E-05 -0.48727803E-06  0.10727181E-05 -0.22981621E-06 -0.71326788E-06
  0.28868663E-06  0.14987533E-05  0.34526591E-05  0.14862593E-05  0.49567549E-06
 -0.77491696E-06  0.23413333E-05 -0.55149137E-06  0.51178712E-05 -0.75787239E-07
 -0.11198967E-05 -0.11265763E-05 -0.17154881E-05 -0.57961949E-06  0.11809954E-05
 -0.16603890E-05 -0.10146338E-06 -0.47453021E-06 -0.37210850E-07 -0.15449045E-05
  0.10709097E-05  0.40617075E-04  0.34342913E-06  0.10401010E-05  0.83286999E-06
 -0.10984180E-05  0.29958434E-06  0.14454657E-06  0.42172271E-05 -0.10108059E-06
 -0.17068207E-05 -0.92024870E-06 -0.10714871E-05  0.31776886E-05  0.19705455E-06
  0.13217001E-05 -0.44454604E-06  0.11284165E-05 -0.24812742E-05 -0.24513675E-05
  0.91705443E-05  0.97625351E-05 -0.67195110E-05  0.79979729E-05 -0.49575882E-04
 -0.16036343E-04  0.71938167E-04  0.99046036E-06  0.41432932E-05  0.78975725E-06
 -0.59892223E-06 -0.26059690E-05  0.28068771E-05  0.17598622E-05  0.54326526E-06
  0.25169707E-05 -0.27871722E-04 -0.60860958E-05 -0.26184802E-04 -0.11293552E-04
 -0.51768573E-05  0.26593541E-04 -0.11032196E-04  0.12703723E-04  0.11023080E-04

  0.14147344E-05  0.27906934E-05  0.82646280E-06  0.16011908E-05 -0.37632246E-05
  0.11809688E-05 -0.10494397E-05  0.82852080E-06 -0.39153203E-05 -0.12124964E-05
 -0.17054654E-05  0.67376575E-07  0.14412176E-06 -0.10170057E-05  0.17561343E-05
  0.25800530E-06 -0.13050972E-05  0.15949641E-05 -0.31714936E-04 -0.80220854E-05
 -0.71503898E-05  0.30925467E-04 -0.23237785E-04  0.19877472E-04 -0.20384806E-04
  0.11869660E-04  0.16138287E-04  0.72908566E-06 -0.23879730E-06  0.19619967E-05
  0.51730959E-06  0.15319097E-05  0.90526956E-06  0.62275506E-06  0.69671719E-06
  0.16362578E-05 -0.90236224E-05 -0.94128981E-05 -0.45058379E-06 -0.24142549E-05
  0.57738331E-04 -0.34174231E-04  0.96318511E-05 -0.58030683E-05  0.14605192E-04
 -0.82703420E-06 -0.14227622E-05 -0.98679374E-06  0.22499006E-06  0.15716560E-06
  0.50835196E-06  0.16905779E-06 -0.93091315E-06  0.14095068E-05 -0.12532392E-05
 -0.13319409E-05 -0.52506144E-06  0.90915183E-06 -0.10030998E-05 -0.16447453E-05
 -0.14878894E-05  0.10573498E-05 -0.60910212E-06  0.35176725E-07 -0.71760271E-06
  0.16178468E-06 -0.53966147E-06 -0.17022109E-05  0.21519026E-05  0.23694868E-06
 -0.59408022E-06  0.65823866E-07 -0.50455058E-06  0.14090315E-05  0.22171114E-05
 -0.15597276E-05  0.15493732E-05  0.16085722E-05  0.35673902E-06 -0.71804542E-06
  0.31361813E-06  0.14275934E-05  0.10185647E-05 -0.25608473E-05 -0.24347730E-05
  0.10324453E-06  0.13113597E-05  0.52489570E-06 -0.76340094E-06  0.10918765E-06
  0.20606950E-04 -0.57371627E-05 -0.20671901E-04  0.37085515E-05 -0.11677252E-05
 -0.29848871E-04  0.15904366E-04  0.27133210E-04 -0.13830148E-04  0.10096303E-05
 -0.11814326E-05 -0.25590067E-05  0.11051419E-05 -0.21923645E-05 -0.84295678E-06
  0.12199358E-06  0.37693975E-05 -0.30196532E-06 -0.22048644E-04  0.97753052E-05
  0.22557566E-04  0.29207251E-04 -0.21797943E-04 -0.67344479E-04  0.46767059E-05
  0.48166464E-05 -0.22346005E-04 -0.77842687E-07  0.57993181E-06  0.22169570E-05
 -0.13813730E-05  0.62565966E-06 -0.18979662E-06  0.63709545E-06  0.43682306E-06
 -0.14659867E-05 -0.83887182E-05 -0.11694353E-04 -0.15772343E-04  0.11624889E-04
  0.48497240E-04 -0.19441299E-04 -0.28951976E-04 -0.20164339E-04  0.19851095E-04
  0.70627624E-07 -0.15538022E-05  0.94054276E-06 -0.71900433E-06  0.43944718E-06
  0.16736187E-05  0.94895348E-06  0.35324516E-07 -0.81939394E-06 -0.40852686E-05
 -0.61248812E-05 -0.27419413E-05 -0.11831340E-04  0.41420701E-05 -0.12951465E-04
  0.10268085E-05 -0.84104671E-05 -0.10989258E-04 -0.11021487E-05 -0.53247464E-06
 -0.40175584E-05  0.14452763E-05 -0.24489049E-06 -0.24866359E-05 -0.12548646E-05
 -0.47714205E-06  0.39875287E-06  0.59489885E-06  0.13031827E-05  0.12547015E-05
  0.23209078E-06 -0.47765223E-06  0.64084148E-06 -0.17531116E-05 -0.89518388E-06
 -0.64995400E-06 -0.33827598E-06 -0.55866284E-06 -0.40825148E-06  0.91087447E-06
  0.61195126E-06 -0.12847175E-05  0.12794370E-05 -0.51359308E-07  0.17001097E-05
  0.29055684E-05  0.34342913E-06  0.32238034E-04 -0.97838044E-06  0.64629763E-06
 -0.11570590E-05 -0.32942556E-06 -0.13005515E-05  0.47744486E-06  0.82452922E-06
 -0.93337707E-06 -0.74341281E-06 -0.22517773E-05  0.98066057E-06  0.42861487E-06
  0.26366001E-05 -0.66450537E-06  0.74331631E-06 -0.17267445E-04  0.13041273E-06
  0.18445309E-05  0.15936527E-04  0.92697894E-05  0.13298218E-04  0.31802802E-05
  0.11830849E-04  0.35422106E-04 -0.20641989E-05 -0.14687973E-05  0.14850687E-05
  0.66753355E-06  0.52419477E-07 -0.37899435E-06 -0.72023600E-06  0.20434193E-05
  0.28356851E-06 -0.93956698E-05 -0.17925053E-04  0.34284318E-04  0.43343867E-05
 -0.40626290E-05 -0.16502817E-04  0.16195556E-04 -0.95706821E-05  0.22120707E-04

 -0.14846066E-05 -0.40432167E-05 -0.10296801E-05 -0.33880561E-05  0.36482347E-05
  0.14515079E-05  0.80556327E-06 -0.68871895E-06  0.30830585E-05 -0.16553776E-06
  0.25929405E-05  0.16053902E-05 -0.17292006E-05  0.97422841E-06 -0.11916612E-05
  0.17439442E-05 -0.65580723E-06  0.71776941E-06  0.11578574E-04  0.19987740E-04
 -0.14699470E-05  0.10473152E-03 -0.37361072E-04 -0.10892393E-04 -0.17980326E-04
 -0.14578135E-05 -0.17977449E-04 -0.18939568E-05  0.78185617E-06  0.46907210E-07
 -0.21244803E-05  0.11746692E-06  0.37783710E-05 -0.25386691E-06 -0.93866122E-08
 -0.38996302E-06  0.79866214E-05 -0.98371885E-05 -0.66834139E-05  0.19395544E-04
 -0.27851687E-04  0.10688340E-04 -0.17015789E-04  0.17135507E-04 -0.15054491E-04
 -0.96172480E-06 -0.10038719E-05  0.56079599E-06 -0.84582129E-06  0.13299605E-05
 -0.91749877E-06  0.10163691E-05 -0.12608741E-05 -0.59271856E-06 -0.97084260E-06
 -0.14653916E-06  0.14261814E-05  0.37505396E-05  0.20360628E-05 -0.11964335E-06
  0.74073539E-07  0.12417821E-05  0.96727009E-06  0.34115543E-05  0.61449564E-06
  0.15445975E-05  0.49759702E-06 -0.15691043E-06  0.18310439E-05 -0.32866850E-06
  0.31338746E-06 -0.13926185E-06 -0.62679186E-06  0.16568155E-06 -0.38715933E-07
 -0.29067861E-05  0.15450542E-05  0.29450860E-06  0.18478145E-06  0.24548372E-06
  0.43050840E-07  0.74379544E-06 -0.44486717E-06 -0.59173706E-06 -0.26206697E-05
  0.11997504E-05  0.18552909E-05 -0.84656568E-06 -0.54716941E-06  0.38300232E-06
  0.49791100E-05 -0.45584935E-05 -0.86219855E-05  0.20896507E-04 -0.12585691E-04
 -0.45853961E-05 -0.37938700E-05 -0.11286369E-05 -0.63609998E-06 -0.72172758E-06
 -0.55259209E-06 -0.13613012E-05  0.77993434E-06  0.10946670E-05 -0.13789186E-05
  0.32075144E-06  0.50866985E-06  0.11976342E-05 -0.40894791E-05 -0.15815539E-04
 -0.14541773E-04  0.60721599E-04 -0.43027082E-05 -0.20706188E-04  0.68173410E-05
  0.19599376E-04 -0.11704851E-04 -0.65208684E-06 -0.74581893E-06  0.94025608E-07
 -0.14674307E-05  0.99561295E-06  0.90427293E-06  0.12568728E-05  0.35244768E-06
 -0.16028464E-05 -0.10425880E-04  0.39552188E-05  0.82400721E-05  0.38092185E-04
 -0.45407315E-04  0.94366361E-05 -0.59583455E-05 -0.15282925E-04  0.10093116E-04
  0.46903081E-06  0.17005827E-05  0.16251463E-06  0.38197250E-06  0.20404234E-06
  0.14718113E-05 -0.64239955E-06  0.11906890E-05  0.31427040E-06 -0.62550841E-05
 -0.33315704E-05  0.50952976E-05 -0.12542417E-04  0.29409584E-05  0.10497343E-04
  0.41088770E-05  0.31631498E-05  0.36624707E-05 -0.90298112E-06  0.47232815E-07
  0.98676642E-06 -0.30480159E-05  0.27733661E-05  0.16942970E-05 -0.65393701E-06
 -0.16196212E-05 -0.94849026E-06  0.14828108E-05 -0.65112903E-06  0.19074419E-06
 -0.41284056E-05  0.16458665E-05  0.18232126E-05  0.36634775E-05  0.27518669E-06
  0.37892347E-06  0.10027472E-05  0.54600930E-07  0.33092315E-06 -0.69908362E-06
  0.12070824E-05  0.97307801E-06 -0.60537455E-06 -0.32657993E-06  0.12730589E-05
 -0.14295510E-05  0.10401010E-05 -0.97838044E-06  0.36573785E-04 -0.14471545E-04
 -0.11812428E-04  0.33920731E-06  0.22982057E-05 -0.13688103E-05  0.24667973E-05
  0.68096552E-06  0.49029454E-06  0.75710564E-06 -0.11916277E-05 -0.28770520E-06
  0.19886687E-05  0.22867038E-06  0.15892934E-05  0.66467425E-05  0.21839600E-04
 -0.25182973E-05  0.53295697E-05 -0.31508818E-04  0.14557478E-04  0.25216927E-04
  0.28734887E-04 -0.26322805E-04 -0.14107629E-05  0.32715121E-07  0.42771943E-06
  0.14232496E-05  0.28698069E-06 -0.16832270E-06  0.13891936E-05 -0.20721928E-06
  0.27826396E-06  0.18884294E-04  0.47742538E-05  0.14346101E-04 -0.21163421E-04
  0.93958617E-05  0.18168446E-04 -0.22507864E-05 -0.15754390E-04 -0.23057267E-04

  0.65024982E-06  0.42167417E-05  0.38359228E-05  0.31762417E-05  0.53117875E-06
 -0.29589284E-05  0.39755447E-06 -0.11575148E-05 -0.23521341E-05 -0.10423188E-05
 -0.19804784E-06  0.67247872E-06 -0.45298519E-07  0.44300514E-06  0.12370960E-05
 -0.25919122E-05  0.41508171E-06  0.21703287E-05  0.42954039E-04  0.14816661E-05
 -0.15285290E-04  0.90014312E-05 -0.25371105E-04 -0.70299776E-05 -0.72633124E-04
 -0.19471268E-04  0.16240386E-04  0.18400197E-05 -0.20429356E-05  0.53963473E-07
  0.75337748E-06 -0.11064001E-05  0.27635966E-06  0.49403714E-06 -0.20848391E-05
 -0.20119726E-05  0.90675708E-05  0.15314822E-04 -0.16210214E-05  0.16859221E-04
 -0.71912669E-05 -0.14178049E-04  0.11182205E-04  0.48806350E-05  0.52615440E-04
 -0.19839136E-05  0.32166540E-05 -0.17335684E-05  0.12671407E-05 -0.59660745E-05
  0.45452422E-05 -0.13406681E-05 -0.13136369E-06 -0.34304920E-05 -0.29346399E-06
 -0.96362210E-05  0.68328521E-06  0.32473559E-05 -0.95968157E-05  0.20944945E-05
 -0.13869809E-05 -0.19162386E-05 -0.49448486E-06 -0.23062894E-06  0.87626060E-06
 -0.82437750E-06 -0.16877172E-06  0.92060412E-05 -0.95621951E-06  0.11978034E-05
  0.16524529E-06  0.14656257E-05 -0.92772346E-06 -0.63294503E-07  0.10849748E-05
  0.23087685E-05 -0.10764610E-04  0.80779523E-06  0.71416743E-07  0.70164153E-06
 -0.11237373E-05 -0.19686041E-05 -0.29311289E-05 -0.10691693E-05 -0.67347013E-07
 -0.45936501E-05  0.25450052E-05 -0.96700783E-06  0.56154505E-06  0.42513833E-05
  0.48220120E-05  0.27418971E-04 -0.39868307E-05 -0.12424130E-04  0.12148413E-04
  0.73199120E-05 -0.82127823E-05  0.84264172E-05  0.13903767E-04  0.38953523E-06
  0.16273003E-05  0.18117649E-05  0.15816166E-05  0.39078927E-05  0.57023865E-07
  0.18952187E-05  0.14466388E-05 -0.27981940E-05  0.14647958E-04  0.81901588E-05
  0.12842340E-04 -0.20932440E-04 -0.27290761E-04  0.57785716E-04 -0.19231442E-04
  0.36410245E-05  0.29650509E-04 -0.92544787E-07 -0.55534389E-05 -0.63574354E-06
 -0.99811942E-06 -0.95685389E-07 -0.73224700E-06 -0.16761778E-06 -0.15061782E-06
  0.10215363E-05 -0.31111222E-05 -0.32580853E-04  0.12203125E-04 -0.63040824E-05
  0.10263067E-03 -0.21432124E-04 -0.54863147E-04  0.27487209E-04  0.12506943E-04
  0.27287389E-05 -0.35220552E-06 -0.55740114E-06  0.22974947E-06 -0.47082856E-05
  0.13431940E-05  0.94559546E-06  0.84513919E-07 -0.10906438E-05 -0.52747836E-05
 -0.70089048E-05  0.42669072E-05  0.30546838E-05 -0.33792672E-05  0.26929918E-05
  0.17739682E-04 -0.58142021E-05 -0.13281885E-04 -0.88037062E-06  0.72780815E-06
 -0.10746111E-05  0.16746787E-05 -0.54448124E-05  0.18829194E-05  0.15370794E-05
 -0.81301730E-06 -0.47308954E-06 -0.50095337E-05 -0.39234891E-05  0.13245089E-05
  0.92565399E-06 -0.47037887E-06  0.10451755E-05 -0.52909975E-05  0.26333525E-05
 -0.23507628E-07  0.82449811E-07 -0.30512101E-06 -0.43529092E-06  0.11357282E-05
 -0.46377414E-05  0.17632597E-05  0.77106027E-06  0.62674783E-06  0.14021790E-06
  0.37607212E-06  0.83286999E-06  0.64629763E-06 -0.14471545E-04  0.63661560E-04
 -0.13595178E-04  0.31639682E-05 -0.75225070E-06  0.23565969E-05 -0.14542482E-05
  0.27959955E-05 -0.21826115E-05 -0.23142103E-05  0.79363502E-05 -0.13008887E-05
  0.18958406E-05 -0.63491420E-06  0.12222001E-06 -0.63665042E-05 -0.18136551E-04
  0.21323565E-04  0.18188295E-05  0.48749187E-04 -0.39351885E-04 -0.15011915E-04
  0.15806633E-05  0.80011396E-05 -0.17378038E-05  0.24803727E-05 -0.37182872E-06
 -0.27150521E-06  0.68698670E-05  0.79670499E-07  0.38401714E-05  0.63002953E-06
  0.27147960E-05  0.15597048E-04 -0.20653421E-04  0.36984832E-05  0.45424387E-04
 -0.34587562E-04  0.54741633E-05  0.10331703E-04  0.33660731E-04 -0.17832289E-04

 -0.45645353E-06  0.13369064E-05 -0.25202646E-05  0.84159778E-06 -0.25986503E-05
  0.19709205E-05 -0.15853473E-05 -0.79633635E-07 -0.18702122E-05  0.23245155E-05
 -0.38964786E-06 -0.32467922E-06 -0.95460203E-07  0.62440471E-06  0.82127378E-06
 -0.11568275E-06 -0.84012079E-06  0.40032693E-06 -0.11692353E-04 -0.60276806E-05
  0.71707748E-05  0.98713180E-05 -0.60294306E-05  0.33351542E-04  0.18923703E-04
 -0.10169493E-04  0.64710647E-05  0.18607305E-06  0.82307259E-06 -0.33902495E-05
  0.19860388E-05  0.18830707E-05 -0.63663531E-05 -0.24597493E-06 -0.16784465E-05
  0.11951932E-05  0.10817434E-05  0.57133950E-05  0.21394887E-05  0.88391826E-05
 -0.89510411E-05  0.37550139E-04  0.61101721E-05  0.16100495E-04  0.18191570E-04
  0.21684840E-05 -0.13015509E-05  0.24157973E-05 -0.20304861E-06  0.42458450E-05
 -0.12469154E-05 -0.75229622E-06  0.16888147E-05  0.32735179E-05 -0.20308054E-06
  0.39425971E-05 -0.17563729E-05 -0.13507518E-05  0.27790038E-05 -0.29298702E-05
  0.44019105E-06  0.19179188E-05 -0.21859211E-05  0.47162346E-06 -0.56881542E-06
 -0.30885557E-06  0.80700638E-06 -0.12482940E-05 -0.37240839E-05 -0.90445135E-07
  0.78037451E-06 -0.11968633E-05 -0.62725335E-06 -0.15219243E-05  0.10088186E-05
  0.11238127E-05  0.95676952E-06 -0.20513100E-05 -0.33165736E-06 -0.62554155E-06
 -0.54392330E-06  0.22310293E-05  0.76183381E-06  0.20829930E-05  0.17663784E-05
  0.12252783E-05 -0.37836744E-06  0.42863037E-06 -0.17980928E-05 -0.47248500E-06
 -0.11997454E-04 -0.51307412E-05 -0.22919543E-04  0.14552855E-04 -0.17360425E-04
  0.18370222E-04  0.14020218E-04 -0.19790476E-04  0.12213956E-04  0.27757368E-06
 -0.28181643E-05  0.21299720E-05 -0.24586481E-05  0.11874564E-05 -0.14727201E-05
 -0.47535192E-06 -0.25646786E-05  0.19356890E-05 -0.13923176E-04 -0.11578875E-04
 -0.31650555E-04  0.26251086E-04  0.25830781E-04 -0.10366424E-03  0.73683385E-06
  0.15712309E-04 -0.14111690E-04  0.20460162E-06 -0.65332985E-06  0.14926792E-05
  0.42961753E-06 -0.10663774E-06 -0.62406460E-06  0.46484237E-06 -0.54856949E-06
  0.30082065E-05  0.17767640E-05  0.67156100E-05  0.67143829E-05 -0.21120555E-05
 -0.18814295E-04 -0.19287605E-05  0.47349654E-05  0.23026893E-04 -0.13490318E-04
  0.28115645E-06  0.12306461E-05 -0.64442220E-06  0.11820889E-05  0.63634933E-06
 -0.17160575E-06  0.22375657E-06  0.52866229E-06 -0.19859585E-05  0.55062044E-05
  0.16564907E-04 -0.91926816E-05 -0.12247522E-05  0.11990281E-04  0.10935898E-04
 -0.64034170E-05  0.28759695E-05 -0.13452914E-04 -0.12460074E-06 -0.15629501E-05
  0.31984621E-05  0.20224555E-05  0.19596987E-06 -0.14347823E-05  0.26129407E-06
  0.23404570E-06  0.62590231E-06  0.43891549E-06  0.25657520E-05 -0.24946221E-06
  0.22658069E-05  0.12450976E-05 -0.16041375E-05  0.11103133E-05  0.26868117E-06
  0.92466178E-06  0.91186748E-06  0.28192828E-06 -0.10570393E-05  0.52087578E-06
  0.22642441E-05 -0.21508298E-05 -0.29896979E-06 -0.13096681E-05 -0.18951794E-08
 -0.26236468E-06 -0.10984180E-05 -0.11570590E-05 -0.11812428E-04 -0.13595178E-04
  0.47259574E-04 -0.83052321E-06  0.91065763E-06  0.17132911E-06 -0.16405404E-06
 -0.37961028E-06  0.14841428E-06  0.16495528E-05 -0.12838455E-05  0.61842652E-06
 -0.20192817E-05  0.28238535E-05 -0.12135040E-05  0.16474354E-05 -0.15593315E-04
 -0.14775166E-04 -0.11106393E-04 -0.67282629E-05  0.49804537E-04  0.57709594E-05
 -0.89647797E-05 -0.15947490E-04  0.21753720E-05 -0.10590964E-05 -0.12249456E-05
 -0.10232972E-06 -0.11527633E-06  0.88713953E-06 -0.17710253E-05 -0.50608060E-06
  0.14869591E-06 -0.11563407E-04  0.63421248E-05  0.65521296E-05  0.28768948E-04
  0.53855357E-05 -0.46719450E-04 -0.13570397E-04 -0.26541655E-05 -0.96507295E-05

 -0.13186412E-05 -0.27882972E-08  0.14971870E-06  0.98116448E-06  0.30404426E-05
 -0.13422230E-05  0.85818976E-06  0.15935844E-05 -0.24161907E-06 -0.40744278E-06
 -0.63049923E-06 -0.27512688E-05 -0.14914538E-06  0.17539705E-05 -0.20697533E-05
 -0.27899969E-06  0.17517171E-06 -0.84556130E-06  0.21290192E-07 -0.26880474E-04
  0.61694181E-07  0.67767807E-04 -0.10452852E-04 -0.16189088E-04  0.30644405E-05
 -0.75035143E-05  0.20100676E-05  0.71684337E-06  0.12903658E-05  0.61604058E-06
  0.63281881E-06 -0.14405257E-05  0.53248535E-06 -0.27605936E-05  0.14904239E-06
 -0.88600636E-06  0.75926288E-05  0.84059883E-05  0.97524347E-05  0.13039948E-04
 -0.31846579E-04  0.14660537E-05 -0.11494139E-04  0.40047963E-05 -0.11418670E-05
 -0.10836109E-05  0.20203202E-05 -0.62387397E-07 -0.16804097E-05 -0.13115896E-05
 -0.29382434E-06 -0.50811639E-07 -0.41434618E-06 -0.90181457E-06 -0.11753360E-05
 -0.18909368E-05  0.24285504E-06 -0.65222582E-06 -0.55570305E-06  0.78843565E-06
  0.12183867E-05  0.38761729E-06  0.28022844E-06 -0.66779572E-07  0.23045616E-05
 -0.27593962E-06 -0.20988694E-06  0.12366467E-05 -0.28410693E-06  0.27165283E-06
  0.17325886E-06 -0.18075092E-06 -0.10818362E-05 -0.99531118E-06 -0.51604697E-06
 -0.69488710E-06 -0.13149530E-06 -0.60727039E-06 -0.24965885E-05  0.49214770E-06
 -0.44716546E-06  0.28180903E-06 -0.44014491E-06  0.16082346E-06 -0.23948496E-06
 -0.39267626E-06  0.35491760E-06 -0.87547820E-06  0.69160776E-06  0.12650388E-05
 -0.14416716E-05  0.47026440E-07  0.95523779E-05 -0.90406257E-05 -0.25472136E-05
  0.10297226E-04 -0.87757100E-05  0.12561240E-05 -0.20854772E-05 -0.32324410E-06
  0.19327317E-06  0.61710470E-06 -0.31718950E-06  0.13687737E-05  0.21208821E-06
 -0.79796601E-06  0.72379822E-07 -0.61617047E-06  0.74080713E-05  0.28207007E-05
  0.93586883E-05  0.92570267E-05 -0.29571564E-05 -0.21083768E-05  0.19265799E-04
  0.30479760E-05  0.77870157E-05 -0.20616352E-06  0.57397690E-06  0.16406034E-06
 -0.29359918E-06 -0.11810691E-05  0.36997905E-06 -0.13751171E-05 -0.57633287E-06
  0.49868204E-06 -0.22923226E-05  0.84618808E-05  0.79640408E-05 -0.20499484E-04
  0.93838231E-05 -0.25995963E-05  0.52368010E-05  0.19530490E-04 -0.13972084E-04
  0.34563553E-06  0.11749556E-05  0.94285823E-06 -0.21953615E-06  0.88995513E-06
 -0.51003222E-06 -0.12520802E-05 -0.84583165E-06 -0.13188461E-05 -0.58457380E-05
  0.33166861E-05  0.12027585E-04 -0.15334041E-05  0.14587784E-04 -0.17213179E-05
  0.33521885E-05 -0.65869893E-05 -0.39030404E-05 -0.19364645E-06 -0.60999299E-06
  0.37889661E-06  0.14009694E-05 -0.57707781E-06  0.53578388E-06 -0.27219281E-05
 -0.89416023E-06 -0.16437446E-05 -0.14312748E-05 -0.35367625E-05  0.15250415E-05
  0.27108053E-05 -0.47018060E-05  0.25661075E-05 -0.16152408E-05  0.74577748E-06
  0.11819452E-05  0.34228505E-06 -0.18105068E-06 -0.19753590E-06  0.37124280E-07
  0.13163935E-06 -0.65066454E-06 -0.15028421E-05  0.62166680E-07 -0.68733964E-06
 -0.89556115E-06  0.29958434E-06 -0.32942556E-06  0.33920731E-06  0.31639682E-05
 -0.83052321E-06  0.22893629E-04 -0.21683284E-06  0.16798669E-05 -0.16641934E-05
  0.17102820E-06 -0.32712971E-07 -0.11518366E-05  0.42116594E-05 -0.58926565E-07
 -0.69453836E-06 -0.33816969E-06  0.20615723E-05  0.18475275E-04  0.20366548E-05
 -0.17750940E-04  0.53063159E-05  0.37851542E-04  0.87299277E-05 -0.20614277E-04
 -0.17680858E-04 -0.16764009E-04  0.10817862E-05 -0.72851352E-06 -0.90452988E-07
 -0.34462783E-06  0.11511962E-05  0.21011426E-06  0.20636340E-05  0.51034179E-07
  0.43452545E-06 -0.11897898E-04  0.13299850E-04 -0.10563856E-05  0.12910509E-05
  0.16048511E-04 -0.48298996E-05 -0.12128966E-04  0.98523649E-05 -0.57665924E-05

 -0.10176614E-05  0.10436647E-05 -0.15284838E-05 -0.51971684E-06  0.43234991E-07
  0.10119555E-06  0.20725126E-05 -0.72495570E-06 -0.17430207E-05  0.28535251E-07
  0.22293685E-05  0.18491957E-05 -0.10633123E-05  0.12018172E-05 -0.57768080E-06
  0.22133024E-06 -0.74615237E-06  0.13754951E-05 -0.24514249E-06  0.16735986E-04
 -0.25423691E-05  0.46519210E-04 -0.24383057E-04 -0.17815935E-04 -0.21279504E-04
  0.18903159E-04 -0.44642200E-05 -0.97048723E-06 -0.70110438E-06 -0.61104199E-06
  0.50219682E-06 -0.37418312E-06 -0.15894352E-05  0.11883082E-05 -0.13381967E-05
 -0.14807171E-05  0.18184937E-05 -0.84225007E-06  0.16790761E-05  0.21046978E-04
 -0.40799854E-05  0.31277007E-05  0.85972276E-05  0.16883323E-04 -0.46774911E-05
  0.12929767E-05 -0.37988067E-06  0.23234886E-05 -0.20267097E-05 -0.50077502E-06
  0.24192123E-05 -0.70353841E-06 -0.10367778E-05 -0.15949742E-05  0.61140508E-06
  0.28517002E-06 -0.56676624E-06  0.10451188E-05 -0.72005310E-06  0.13689169E-05
  0.48746769E-06 -0.61744092E-06 -0.50381938E-06  0.82773251E-06 -0.52711804E-06
  0.13549314E-05  0.12101621E-05 -0.44606676E-06  0.44325709E-06 -0.12727592E-06
 -0.11054227E-05  0.65587411E-06  0.21410948E-06  0.20021855E-05 -0.10861849E-05
  0.33160124E-06  0.11848680E-05 -0.10221311E-05 -0.16266316E-06 -0.26723681E-05
  0.37570568E-06  0.74818974E-06  0.11267578E-05  0.12824622E-05  0.41038723E-06
 -0.68134947E-06 -0.96882619E-06  0.49908923E-06 -0.63322182E-06 -0.12880168E-06
 -0.64093327E-05 -0.12766096E-04 -0.10411357E-04  0.49636843E-07  0.30492852E-05
 -0.25947213E-04 -0.69079123E-05  0.49914534E-05  0.24448299E-04  0.69155207E-06
  0.13790118E-06  0.16160551E-05 -0.77674038E-07  0.18059276E-05 -0.24836052E-05
 -0.94743696E-07 -0.21430205E-05  0.81813915E-06 -0.60651277E-05  0.71053388E-05
 -0.12195433E-04  0.28157362E-04  0.38760943E-05  0.18046714E-04 -0.48186528E-05
 -0.25397134E-04  0.97356915E-05  0.62380004E-06  0.97305952E-07 -0.70642654E-06
  0.14930155E-05 -0.52942034E-06  0.46522594E-06 -0.52274829E-06 -0.14459166E-05
  0.20812592E-05  0.29911652E-05  0.99474706E-05  0.97869304E-05 -0.99747053E-05
  0.91670998E-05  0.27075032E-04  0.73144866E-05 -0.44706994E-05  0.46474999E-06
  0.20666827E-06  0.30901373E-06  0.62250128E-06  0.56224502E-06  0.50085594E-06
  0.42634137E-06 -0.52359571E-06  0.21563308E-06  0.57182401E-06  0.65451561E-05
  0.81343479E-05 -0.72800738E-06 -0.66980011E-05  0.38239068E-05  0.67557770E-05
 -0.62863456E-05  0.41305929E-05 -0.36795138E-06  0.98561162E-06 -0.36694946E-06
  0.82682600E-06 -0.15800488E-05 -0.42680308E-06  0.40809483E-06 -0.48752415E-06
  0.45706037E-06  0.31175334E-06  0.91326715E-07  0.12398114E-05 -0.14423908E-05
  0.42661018E-06  0.12927290E-05 -0.55704424E-06  0.43189923E-06 -0.59119530E-06
  0.14135532E-05 -0.35354065E-06 -0.41580502E-07  0.13121253E-05  0.54193871E-07
  0.43209331E-06 -0.16152168E-05  0.56937181E-06 -0.12102682E-05 -0.61101474E-06
 -0.81741971E-06  0.14454657E-06 -0.13005515E-05  0.22982057E-05 -0.75225070E-06
  0.91065763E-06 -0.21683284E-06  0.19519477E-04  0.11481034E-05  0.39406073E-06
  0.15457632E-06  0.12394253E-05 -0.16743624E-06 -0.11658341E-05  0.24658053E-05
  0.18634029E-06  0.46143554E-06  0.39228975E-06 -0.49409651E-05 -0.12630301E-04
  0.20708383E-06 -0.19304964E-05 -0.15582378E-04  0.85800167E-04 -0.36518958E-05
 -0.20650722E-04 -0.12604872E-05 -0.43919830E-06 -0.93468220E-07  0.96569047E-06
 -0.12218696E-06  0.75849151E-06 -0.36711832E-06  0.50317799E-07 -0.39290595E-06
 -0.56224628E-06  0.11770682E-04  0.34396672E-05 -0.14610001E-04 -0.37916894E-04
  0.13473443E-04  0.17517755E-04 -0.78358606E-05 -0.16450042E-04 -0.13377334E-04

  0.48460980E-06  0.41374968E-05  0.49474925E-05  0.31544554E-05 -0.37391377E-05
 -0.14061479E-05 -0.24714378E-06  0.31036308E-06 -0.44354948E-05 -0.23611583E-05
  0.14158149E-05 -0.60236022E-06  0.19524315E-07 -0.12935007E-05  0.91135048E-06
 -0.17654282E-05 -0.11366142E-05 -0.61472886E-06  0.97797096E-05 -0.83901501E-05
  0.12340678E-04 -0.16042026E-04 -0.13555690E-04 -0.16046350E-04 -0.95895890E-05
 -0.12347496E-04  0.10157861E-04  0.86985203E-06 -0.14608315E-05  0.15137006E-05
  0.23292910E-05 -0.11214832E-05 -0.45869798E-05 -0.12895326E-05  0.13506376E-05
 -0.18434622E-05  0.35752881E-05 -0.23418123E-05  0.12031273E-04 -0.20064062E-05
  0.34010684E-04 -0.21583192E-04  0.22053271E-04 -0.76592700E-05 -0.12679910E-04
 -0.60524867E-06  0.10106022E-05 -0.16143595E-05 -0.10236902E-05 -0.22961710E-05
  0.39557004E-05 -0.49989802E-06 -0.20238414E-05  0.61974294E-06 -0.92775896E-06
 -0.12031254E-05 -0.19410248E-05  0.16033938E-05 -0.46036051E-06 -0.28093566E-05
  0.31064013E-06 -0.13395008E-05 -0.81387138E-06 -0.74516500E-06 -0.42346623E-06
 -0.82854437E-06  0.11123506E-05  0.94257446E-06 -0.87524035E-06 -0.10803279E-06
  0.34486367E-08  0.95948996E-06 -0.65826070E-06  0.97091180E-07  0.99147773E-06
  0.92804629E-06 -0.29982943E-05  0.23863928E-05 -0.10770640E-05 -0.28367218E-06
 -0.36320715E-05  0.75399305E-06  0.27380639E-06  0.14175639E-06 -0.13798295E-06
 -0.36662062E-05  0.24029542E-07  0.46041340E-06 -0.73675139E-06  0.79396218E-06
 -0.22406709E-05  0.12357055E-04 -0.48364187E-05 -0.16454054E-05  0.32791003E-04
  0.11451134E-04 -0.17753059E-04  0.11066824E-05 -0.87954741E-05 -0.68192840E-06
  0.17849591E-05  0.10830799E-05  0.59653064E-07  0.16133542E-05  0.45752871E-06
  0.61680951E-06  0.24887045E-06 -0.22183613E-05  0.30823393E-04  0.16368696E-04
  0.94722985E-05 -0.20256071E-04 -0.14440717E-04  0.28791064E-04  0.11526172E-04
  0.92157087E-05  0.59800310E-05 -0.14075187E-06 -0.31416883E-06 -0.27532126E-05
  0.67308658E-06  0.43150240E-06 -0.19580477E-05  0.86261778E-06  0.27146540E-06
 -0.14922436E-05  0.12039934E-04 -0.15598905E-04  0.18559140E-04 -0.69636136E-05
  0.28971110E-04  0.24796076E-04  0.17968805E-05  0.62090968E-05 -0.34410068E-05
 -0.15159677E-06  0.31985677E-05 -0.86387832E-07 -0.63012867E-06 -0.16545452E-06
  0.47464473E-06 -0.49952535E-06 -0.10716603E-05  0.83713455E-06  0.83801328E-05
 -0.20526608E-04  0.23799290E-05  0.11559556E-05 -0.14472312E-04 -0.89074956E-05
 -0.18188940E-04 -0.41420818E-05  0.31374332E-04  0.31900916E-06 -0.23379894E-06
 -0.48212627E-06 -0.13729105E-05  0.16416394E-05  0.74389006E-06 -0.73230659E-06
  0.16151576E-05 -0.15571946E-05  0.16985027E-05  0.16166291E-05 -0.85908878E-07
  0.71721993E-06  0.33076683E-05 -0.20381319E-05  0.16394814E-05  0.29915597E-05
 -0.21209059E-05 -0.33356622E-07  0.49663455E-06 -0.45159206E-06 -0.97811803E-06
  0.19432819E-05 -0.56416052E-07 -0.13604094E-05 -0.12587946E-05 -0.21786288E-05
  0.71420889E-06  0.42172271E-05  0.47744486E-06 -0.13688103E-05  0.23565969E-05
  0.17132911E-06  0.16798669E-05  0.11481034E-05  0.32895102E-04  0.25245800E-05
  0.70060135E-06  0.58743132E-08 -0.57746776E-06  0.29421385E-06  0.10407324E-06
  0.31588557E-05  0.11483849E-05  0.87271928E-06 -0.32775508E-04  0.27451407E-04
  0.38810650E-04  0.42067766E-05 -0.87406594E-05 -0.12284419E-04 -0.58854110E-05
  0.18923698E-04 -0.18476375E-04 -0.66467884E-06  0.13011525E-06 -0.28622308E-06
 -0.84448258E-06 -0.92512007E-06  0.18491836E-05  0.87068553E-06  0.46116467E-06
 -0.34552609E-06  0.15753799E-04  0.23980698E-05 -0.32074385E-04 -0.36283956E-04
  0.99469471E-05  0.40870087E-04 -0.43135184E-05  0.14781177E-04 -0.30720296E-04

  0.20247814E-05 -0.16721765E-05  0.14982600E-05 -0.31042699E-06 -0.13154001E-05
  0.26343179E-05 -0.54186181E-06 -0.30532163E-05 -0.14648479E-05 -0.21137459E-05
  0.79983077E-05 -0.28773249E-05 -0.13582067E-05 -0.34318775E-05  0.67775187E-05
 -0.34703512E-05 -0.21980717E-05  0.23693091E-06  0.37240982E-04  0.11771121E-04
  0.52784591E-05  0.26636979E-04  0.34013318E-04 -0.84435474E-05  0.22120562E-04
  0.14729678E-04  0.31143491E-04  0.10182909E-05  0.86011698E-06  0.16076356E-05
 -0.59152263E-06  0.49659983E-05 -0.25523690E-05 -0.87932525E-06  0.19089094E-05
 -0.14860104E-05 -0.35442911E-04 -0.46061065E-04 -0.55852025E-04  0.10995409E-04
  0.35690900E-04 -0.48434188E-04 -0.22404444E-05 -0.19169933E-04 -0.16237467E-04
  0.33636568E-05 -0.87231696E-06 -0.29559794E-05 -0.10341118E-05  0.30153306E-05
 -0.35281099E-05  0.21619417E-05 -0.21993056E-05  0.95046454E-06 -0.15661136E-05
  0.31538012E-05 -0.31803346E-06  0.56833084E-06 -0.24381507E-05 -0.44453511E-06
 -0.18404446E-05 -0.26237160E-06 -0.32456683E-05 -0.24769780E-06 -0.27289612E-05
 -0.27495660E-06  0.27791933E-05 -0.82134307E-06  0.73347229E-06  0.66341282E-06
  0.35931944E-07  0.32748044E-06  0.55047670E-06 -0.19821288E-05 -0.34464919E-05
  0.97414032E-06 -0.32692292E-05  0.33199111E-05 -0.81202832E-07  0.92639967E-06
  0.10245794E-06  0.97404724E-07 -0.15215740E-05 -0.33674157E-05 -0.17062556E-05
 -0.90946745E-06  0.97537599E-06  0.22131165E-05 -0.66870119E-07  0.18925893E-05
 -0.57948040E-05  0.24481686E-06 -0.22683508E-05 -0.11237711E-04  0.19260363E-04
 -0.32842967E-04 -0.18905340E-04 -0.40621649E-05  0.10553581E-04  0.13353100E-06
 -0.11407463E-05 -0.41873601E-06 -0.98312317E-06 -0.50724378E-06 -0.26022362E-05
  0.67483134E-06 -0.87974680E-06  0.22160009E-05  0.11101083E-04 -0.25565372E-04
  0.39266241E-05  0.32657443E-04 -0.20332924E-04 -0.19950009E-05 -0.43415856E-05
  0.87531278E-05 -0.21699651E-04 -0.12038297E-05 -0.23902236E-05  0.71926999E-09
  0.10483644E-05 -0.17484536E-05  0.73189348E-06  0.40265584E-06  0.35082219E-06
  0.42081029E-06 -0.13538927E-04 -0.23670310E-04  0.26045336E-04  0.56743311E-04
 -0.38159102E-04 -0.48788594E-06 -0.16855366E-04 -0.19027556E-04  0.82038085E-07
 -0.18217475E-05  0.85820644E-06  0.28116527E-05  0.53890328E-06 -0.10732779E-05
  0.15118050E-05  0.12120590E-05 -0.62836109E-06  0.32474577E-05  0.17592808E-04
 -0.23350574E-04  0.25441926E-04 -0.94988335E-05  0.25595072E-04 -0.29835141E-06
 -0.26676194E-04  0.66089119E-05  0.13696648E-04  0.12875086E-05 -0.12695006E-05
  0.99111991E-06 -0.11611441E-05  0.29743523E-05 -0.13376677E-06  0.94946095E-06
  0.15520571E-05 -0.99721009E-06 -0.10359681E-05 -0.21039108E-06 -0.17390317E-05
 -0.15630961E-05  0.41096616E-05 -0.75301790E-06 -0.47082075E-06  0.11156940E-05
 -0.76448441E-06 -0.12015177E-05 -0.94214176E-06 -0.37523088E-06  0.80131910E-06
  0.32618759E-05 -0.10736048E-06 -0.13160244E-05  0.94413155E-07 -0.83900495E-06
  0.39235748E-06 -0.10108059E-06  0.82452922E-06  0.24667973E-05 -0.14542482E-05
 -0.16405404E-06 -0.16641934E-05  0.39406073E-06  0.25245800E-05  0.56415818E-04
  0.84240114E-05  0.99673165E-05  0.50067367E-05 -0.12499296E-04 -0.63986181E-06
  0.15324970E-04  0.74511142E-05  0.10198039E-04 -0.20181596E-03  0.25733142E-03
  0.10962557E-03  0.78665951E-04 -0.23636956E-03  0.24252178E-03  0.29081890E-03
  0.16358351E-03 -0.13005436E-03  0.14382638E-05  0.31449420E-05 -0.17109866E-05
 -0.29613804E-05  0.32648404E-05  0.36466221E-06  0.84430552E-06 -0.99093470E-07
 -0.46875362E-05  0.81509184E-06 -0.99669196E-05 -0.18599605E-04 -0.16577626E-06
 -0.14035997E-04 -0.50190717E-05  0.17021312E-04  0.41427585E-05  0.14360924E-04

 -0.22132295E-05  0.17160706E-05  0.20766748E-05 -0.22776723E-05  0.15297756E-05
  0.69839580E-05 -0.19763578E-05 -0.18776626E-05 -0.11957263E-05 -0.73455544E-06
  0.99927645E-06 -0.29548859E-05  0.12802929E-05  0.31085135E-06  0.32428913E-05
 -0.79945682E-06 -0.33277058E-06  0.21409064E-05 -0.65645700E-05 -0.86399151E-06
 -0.14801390E-04  0.33689487E-04  0.10392516E-03 -0.31483370E-04  0.48637514E-04
  0.16597453E-04 -0.13416447E-04  0.16692232E-05  0.23327005E-05 -0.52101207E-06
 -0.27677881E-05 -0.57603178E-06  0.67482575E-05 -0.18303123E-05 -0.16443964E-06
 -0.11137869E-05 -0.27621105E-05 -0.38191449E-04 -0.26972680E-04  0.10438452E-05
 -0.81209043E-04  0.26747233E-04 -0.28791667E-04  0.20176395E-05 -0.55512822E-05
  0.26191795E-05  0.22816254E-05 -0.12786344E-05  0.19106065E-05  0.31568601E-05
 -0.19853892E-05  0.80142457E-06  0.23103482E-05  0.12100874E-05  0.45335944E-06
 -0.24853033E-05  0.22917555E-05  0.19746798E-05 -0.33310647E-05  0.60248239E-06
 -0.12480148E-05  0.14261057E-05  0.88318030E-06  0.40535560E-06  0.33657105E-06
  0.41259490E-07  0.30351290E-05 -0.17108607E-05  0.19406928E-05 -0.66932104E-07
  0.17180968E-05  0.13765882E-05 -0.82813158E-06  0.79987500E-06  0.66377194E-06
  0.28183472E-06  0.10616261E-06 -0.14220720E-05  0.21681888E-05 -0.10531713E-05
  0.38526729E-07 -0.42305018E-05 -0.49812383E-05  0.76554610E-06 -0.34245597E-05
  0.67523556E-05  0.12689861E-05  0.16470017E-05  0.33831374E-06 -0.49820768E-06
 -0.64734848E-05  0.47761062E-05  0.36113519E-05 -0.23538950E-04 -0.32487532E-05
 -0.41548157E-04  0.29558499E-05  0.71090550E-05 -0.12603450E-04 -0.14215095E-05
 -0.41798276E-05 -0.11285663E-05  0.21592126E-05 -0.10863431E-05 -0.13879783E-05
 -0.19814529E-05 -0.23708637E-06  0.10410395E-05  0.10512990E-04  0.15219423E-04
  0.10651440E-04  0.79682562E-04 -0.27530862E-04 -0.91635920E-05  0.25025004E-04
 -0.10623509E-04  0.24206308E-05  0.14498486E-05 -0.24952614E-06 -0.88868653E-06
  0.34781471E-06 -0.43915536E-05  0.25306138E-05 -0.29604219E-06 -0.92577341E-06
 -0.36195312E-06  0.20622587E-04  0.55377133E-05  0.37238010E-04  0.14539430E-04
  0.10805161E-04  0.14484537E-04 -0.34526930E-04 -0.36290609E-05 -0.17876975E-04
  0.33571816E-06 -0.49681107E-05  0.33071454E-06  0.21013325E-05 -0.60936764E-05
  0.19240569E-05  0.12483020E-05 -0.19033556E-05 -0.21278055E-05  0.10236373E-04
 -0.20236825E-05  0.42742180E-04 -0.49130918E-05  0.27903705E-04  0.12995557E-04
  0.97472572E-05 -0.64562369E-05  0.18386543E-04 -0.72158962E-06 -0.35271146E-07
 -0.92415134E-06  0.12662503E-05 -0.11691250E-05 -0.63750674E-06  0.10659965E-05
  0.83415622E-06 -0.36862148E-05 -0.49286370E-06  0.11939575E-05 -0.27309143E-05
 -0.35711656E-06 -0.11688007E-05 -0.68455724E-06 -0.17790582E-05  0.31622970E-06
 -0.52511902E-07 -0.32959637E-07  0.37431081E-05  0.47989114E-06 -0.67159915E-06
  0.28794819E-05 -0.60113079E-06 -0.19535439E-05 -0.68204474E-06  0.79354891E-06
  0.61697859E-06 -0.17068207E-05 -0.93337707E-06  0.68096552E-06  0.27959955E-05
 -0.37961028E-06  0.17102820E-06  0.15457632E-06  0.70060135E-06  0.84240114E-05
  0.79009970E-04 -0.22664535E-05 -0.14923996E-04  0.14849537E-04 -0.10703322E-04
 -0.33410054E-05 -0.12638437E-05  0.88919517E-05 -0.10614688E-05  0.27211926E-03
  0.37496809E-03  0.26243255E-03  0.11011034E-03  0.13588905E-03 -0.54688884E-04
 -0.17532687E-03 -0.17254806E-03  0.48776845E-05  0.38396763E-05 -0.25332686E-05
 -0.13603440E-05  0.40803321E-05 -0.79499190E-06  0.76939652E-05 -0.54057363E-05
 -0.51005644E-05  0.16881219E-04  0.12287999E-04  0.80817043E-05 -0.63318045E-05
  0.48863332E-04 -0.38719411E-04  0.17767280E-04  0.14723616E-04  0.94389261E-05

 -0.12207252E-05 -0.39015775E-05  0.36912804E-05  0.13128209E-05 -0.50378197E-05
 -0.47398792E-05 -0.69483169E-06 -0.14843577E-05 -0.28122358E-05 -0.17448873E-05
  0.10734309E-05 -0.66381051E-06 -0.33196221E-06 -0.52605416E-05  0.62203175E-06
 -0.72085379E-06  0.23141462E-05  0.23876864E-06 -0.51020488E-04 -0.33675400E-04
  0.11383382E-04  0.17744721E-04  0.13037466E-04 -0.50620750E-04  0.51278140E-04
  0.26056764E-04  0.18236190E-04  0.25297140E-05  0.14995585E-05  0.20138952E-05
 -0.16599979E-05  0.27907104E-05  0.35473750E-06 -0.30526969E-05 -0.12838272E-05
 -0.22012066E-05 -0.40701499E-04 -0.31568481E-04 -0.35695954E-04 -0.15596839E-04
 -0.24386001E-04  0.28376084E-04 -0.50703787E-05 -0.21548327E-04  0.36546058E-05
 -0.11801632E-05 -0.31396017E-05  0.26960519E-05 -0.27599868E-05 -0.24311515E-06
  0.90149325E-06  0.14703474E-05 -0.38031316E-05  0.37380239E-05 -0.76796614E-06
 -0.12628181E-05 -0.54019799E-06 -0.10437115E-05  0.41226420E-06 -0.51420623E-06
 -0.19924349E-05  0.46830580E-06 -0.28604655E-05  0.15740352E-06 -0.24938219E-05
  0.11442231E-05 -0.82000463E-06 -0.15332313E-05  0.73217498E-07  0.66522912E-06
  0.12761505E-05 -0.34862228E-06 -0.29589435E-05  0.12854972E-05 -0.19520066E-05
 -0.88250576E-07  0.18703075E-05  0.20781061E-05 -0.31405340E-06  0.11134640E-05
  0.88837862E-06 -0.15525506E-05  0.54736259E-05 -0.73457635E-06  0.10965551E-05
  0.80156265E-06 -0.63998547E-06  0.27960766E-05  0.51709625E-06  0.23785807E-05
 -0.40588581E-05 -0.37924929E-04  0.55885505E-05  0.58197160E-05 -0.29547463E-04
 -0.66423707E-05  0.13307907E-04 -0.32188462E-04 -0.33105550E-04  0.12645871E-05
 -0.94445319E-06  0.37368469E-05  0.30126836E-06  0.10450795E-05 -0.55684647E-05
  0.12209028E-05 -0.21122914E-05 -0.47760678E-06  0.14521946E-04  0.61635389E-05
 -0.23624525E-04 -0.21081797E-04  0.25048118E-04 -0.55551214E-05 -0.23098142E-04
  0.19252439E-05  0.27994846E-04  0.10137301E-05  0.19750303E-05 -0.20511667E-06
  0.19209223E-05 -0.19492006E-05 -0.17646952E-05  0.10944374E-05  0.20391647E-05
  0.25986157E-05  0.17909985E-04  0.19058383E-04 -0.22062842E-04 -0.98451933E-05
  0.13852652E-04 -0.45075306E-05  0.22857538E-05  0.38413087E-05 -0.54667639E-05
  0.16224002E-05  0.13524841E-05  0.20816671E-05 -0.14432653E-05  0.30504287E-05
  0.73641464E-06  0.23849090E-05  0.48663147E-06  0.40562757E-06  0.26036238E-06
  0.64469287E-05  0.20366587E-04 -0.63855183E-06  0.38436644E-05  0.29108008E-05
 -0.11677804E-04  0.54282007E-05 -0.45870084E-04  0.17800596E-05 -0.58943220E-06
  0.11791922E-06 -0.54055965E-06  0.57608654E-06  0.82517534E-06 -0.91949580E-06
 -0.15736639E-06 -0.20885392E-05 -0.29551902E-06  0.43055367E-06 -0.80484375E-06
  0.53173252E-06  0.65033576E-08 -0.19205189E-05  0.61038798E-06 -0.16765841E-05
 -0.61637525E-06 -0.95428846E-06 -0.58770482E-06 -0.26538125E-05 -0.10084149E-05
 -0.86075933E-06  0.10979155E-05  0.22164546E-06 -0.60432877E-06 -0.63292463E-06
  0.13295732E-05 -0.92024870E-06 -0.74341281E-06  0.49029454E-06 -0.21826115E-05
  0.14841428E-06 -0.32712971E-07  0.12394253E-05  0.58743132E-08  0.99673165E-05
 -0.22664535E-05  0.60190899E-04 -0.94477838E-06 -0.13443108E-04  0.55860318E-05
  0.53406450E-05  0.35779301E-05  0.13948447E-04 -0.31356708E-04  0.20499461E-03
 -0.99258422E-04  0.11715939E-04 -0.23016487E-03  0.65376098E-03  0.46187571E-04
  0.13901197E-04  0.20791563E-03 -0.79767013E-06 -0.17337847E-05 -0.59289481E-06
  0.10192369E-05 -0.10193941E-05  0.56796364E-06 -0.12023843E-05 -0.25147997E-06
  0.33937075E-06 -0.85394302E-05  0.38257928E-05 -0.35449669E-05 -0.14202044E-04
 -0.18712215E-05 -0.68364413E-05  0.94648879E-05  0.22479887E-05  0.73932323E-05

  0.33498058E-05  0.12728485E-05  0.19749706E-05 -0.76950146E-05  0.28250904E-06
  0.46220777E-05  0.26389416E-06 -0.39905677E-05 -0.11806835E-05  0.12735219E-05
  0.26997563E-05 -0.13280040E-06 -0.62651045E-05  0.60004747E-05 -0.11797221E-05
  0.10364483E-05 -0.10450797E-05  0.32644532E-05  0.26352639E-04  0.11957796E-04
  0.26690505E-05 -0.34392214E-04  0.43466746E-04  0.91171927E-05  0.46670185E-05
 -0.23158932E-04 -0.17119273E-04  0.31749065E-06 -0.10352394E-05 -0.52625585E-06
 -0.37886647E-06 -0.36425910E-06  0.29404910E-05  0.25615438E-05  0.10288737E-05
 -0.75509165E-07  0.13982935E-04  0.89021160E-05  0.12488095E-04 -0.92879717E-05
 -0.15367088E-05 -0.12652580E-04 -0.15885561E-04 -0.22004416E-04 -0.58546342E-05
 -0.34587565E-06 -0.16548243E-05  0.12193668E-05  0.13793100E-06  0.37961289E-05
 -0.26375262E-05  0.19672175E-05 -0.15844557E-05  0.95720158E-06 -0.21584263E-05
  0.15538661E-05 -0.12302480E-05 -0.36826016E-05  0.36027590E-06  0.14068233E-05
 -0.11691211E-05  0.69088095E-06 -0.61185823E-06 -0.15138446E-05 -0.13057946E-05
  0.13331594E-06 -0.12960852E-05 -0.65491864E-07  0.25884444E-08  0.11490227E-05
  0.10032112E-05  0.60968785E-06 -0.10651280E-05 -0.13807755E-05 -0.34209281E-05
  0.28848875E-06  0.28219761E-06 -0.10311578E-06 -0.40842780E-06 -0.14115464E-06
 -0.15553864E-05  0.14378195E-05  0.74009979E-06  0.14467361E-05  0.34719761E-05
 -0.22616763E-05 -0.99554036E-07 -0.94188191E-06 -0.10651660E-05 -0.97438003E-06
 -0.16376287E-04  0.62567590E-06  0.11814985E-04  0.14407817E-04 -0.58699307E-05
 -0.17159610E-04  0.42135400E-05  0.50619593E-05  0.11376644E-04 -0.12593355E-05
 -0.10217019E-05 -0.97191219E-06 -0.27247891E-05 -0.67734387E-06  0.61436291E-06
  0.12588890E-05 -0.97857758E-06  0.31741993E-05  0.18335168E-04 -0.20398926E-04
 -0.10056666E-04  0.35073440E-04 -0.17174101E-04 -0.91334107E-05 -0.18148259E-04
  0.57520339E-05 -0.14326441E-04 -0.86568331E-06  0.27285443E-05 -0.19749233E-05
  0.57820173E-05 -0.15104444E-05  0.13096686E-05 -0.10273985E-05  0.26570809E-05
  0.12206819E-05  0.89065312E-05  0.24793585E-04 -0.23782714E-04 -0.34913418E-04
 -0.97839403E-05 -0.64968138E-05  0.30546239E-04 -0.17065589E-04  0.21327469E-04
 -0.10535911E-05  0.92705664E-06  0.98151628E-06  0.27736326E-07  0.14047144E-05
 -0.15804726E-05 -0.69267563E-06  0.32696777E-06  0.48607150E-06 -0.50264292E-05
 -0.14802408E-04  0.58244672E-06 -0.95080466E-05 -0.59663928E-05  0.21353036E-04
 -0.97410185E-05  0.19755540E-04 -0.11414744E-04  0.16532092E-05 -0.10531990E-05
  0.40531887E-06  0.32644383E-05 -0.19505443E-05 -0.16489055E-05  0.69675578E-06
 -0.47177578E-06  0.10458906E-05  0.58023294E-06  0.15067074E-05 -0.32970282E-06
 -0.36339095E-05  0.18347474E-05  0.22358628E-05  0.48342456E-06  0.51514920E-06
  0.16485129E-05 -0.81459776E-06 -0.14944943E-05 -0.58809198E-07 -0.34957140E-05
  0.24600661E-05  0.12328356E-05  0.67827481E-06  0.10024905E-05  0.71140852E-06
 -0.20394278E-05 -0.10714871E-05 -0.22517773E-05  0.75710564E-06 -0.23142103E-05
  0.16495528E-05 -0.11518366E-05 -0.16743624E-06 -0.57746776E-06  0.50067367E-05
 -0.14923996E-04 -0.94477838E-06  0.69064913E-04 -0.30872696E-04 -0.12710642E-04
  0.51622870E-05  0.95663690E-05 -0.16311894E-05 -0.51014271E-04 -0.17150113E-03
 -0.20818680E-03 -0.23926865E-03 -0.13254414E-04  0.21084377E-04  0.17055887E-03
  0.16669674E-03  0.81528720E-04  0.37773886E-05 -0.13671437E-05 -0.67302336E-06
  0.10489559E-06 -0.78094978E-06 -0.83464402E-06  0.16314233E-05 -0.12795460E-05
  0.19200129E-05  0.89890163E-05 -0.31777809E-05  0.78322692E-05  0.46579548E-04
 -0.11187165E-04  0.59309337E-05  0.67454699E-05 -0.44141092E-05 -0.14547524E-04

 -0.11820448E-05  0.51087485E-05 -0.10502672E-05 -0.18656705E-06  0.83508907E-05
  0.46646050E-05  0.12448942E-05  0.27039125E-06  0.39890509E-05  0.35862710E-05
  0.99748627E-06  0.48108171E-05  0.47249769E-05 -0.45581254E-05 -0.31433696E-06
  0.47869820E-05  0.30956569E-05 -0.26265178E-05 -0.55145745E-04  0.63812200E-04
  0.90239736E-05  0.15440020E-03 -0.17665759E-03  0.36272358E-04  0.17323777E-04
  0.14119227E-04 -0.96121113E-05  0.40741935E-06  0.23062128E-05 -0.17552100E-05
  0.53013171E-06 -0.35502763E-05 -0.17066346E-05  0.16871600E-05 -0.20591573E-05
 -0.19738723E-05 -0.31174782E-05  0.42243739E-04  0.13443893E-04  0.11300607E-05
  0.48629442E-04 -0.11915669E-04 -0.18214558E-04  0.24125643E-04  0.30497257E-04
  0.23110161E-06 -0.33631320E-05 -0.17920255E-05  0.29453113E-05 -0.68491821E-05
  0.45912030E-05  0.20176802E-05  0.17083032E-05 -0.25435683E-05  0.34303027E-05
 -0.86787922E-06  0.10649363E-05  0.27009824E-05 -0.29647563E-05 -0.45723458E-06
 -0.64631355E-06 -0.74346141E-08  0.14701305E-05  0.14984935E-05  0.50752948E-05
 -0.40008524E-06  0.64503280E-06  0.62861465E-06  0.15438071E-05 -0.24860587E-05
 -0.13129077E-07 -0.39177131E-06 -0.31443814E-06  0.16520143E-05 -0.27943254E-06
  0.12839406E-05 -0.46632844E-05  0.25639687E-05 -0.14767813E-05  0.39463416E-06
  0.12648237E-05 -0.22242795E-05 -0.72203819E-05 -0.62375186E-06 -0.19977314E-05
  0.23844957E-05  0.26577250E-05 -0.87686634E-06 -0.11384778E-05  0.23048132E-06
  0.88793248E-05 -0.36153541E-04 -0.42667637E-05 -0.27037352E-04  0.54350608E-04
  0.20405109E-04  0.22822227E-04 -0.42811359E-05  0.21901976E-04 -0.28979872E-05
 -0.29662795E-05 -0.13074053E-06  0.25453576E-06  0.36580729E-05  0.22957927E-06
 -0.31567323E-05  0.27007680E-05 -0.28186629E-05  0.98441280E-05  0.10107176E-05
 -0.31576538E-04 -0.72696431E-05  0.79044095E-04 -0.59196300E-04  0.60640002E-04
 -0.37461113E-05  0.21749442E-05  0.36407252E-05  0.39526078E-05 -0.78256696E-06
  0.56439181E-06 -0.48639218E-05  0.26714854E-05 -0.95753001E-06 -0.33172687E-05
 -0.61499725E-05 -0.16363139E-05  0.35386809E-04 -0.33212174E-04  0.39033539E-04
 -0.83382299E-04 -0.11845022E-04 -0.16193253E-04  0.18874216E-04 -0.60767755E-04
  0.15332215E-05 -0.22667134E-05 -0.55794835E-06  0.19657455E-05 -0.64371420E-05
  0.61157160E-05  0.10217661E-05 -0.19488853E-06 -0.24525162E-05 -0.55876542E-05
  0.19934590E-04  0.12105210E-04 -0.67243570E-05  0.37434275E-04  0.86133043E-05
  0.24956153E-04 -0.31500870E-05  0.20351072E-04 -0.15306463E-05 -0.21903782E-05
 -0.20558984E-06  0.16612935E-05  0.13471067E-05 -0.57592340E-06 -0.11496732E-05
 -0.16022417E-06 -0.18160112E-05  0.85978753E-06 -0.14321739E-06  0.18155500E-05
  0.24664142E-05 -0.54616644E-05  0.18427087E-05 -0.18584447E-05 -0.66251976E-06
  0.16057598E-05 -0.11488133E-05  0.61766714E-05 -0.15224031E-05  0.51323933E-06
  0.24593594E-05  0.23488435E-05 -0.75169605E-07 -0.55040095E-06  0.25108192E-05
  0.85149132E-06  0.31776886E-05  0.98066057E-06 -0.11916277E-05  0.79363502E-05
 -0.12838455E-05  0.42116594E-05 -0.11658341E-05  0.29421385E-06 -0.12499296E-04
  0.14849537E-04 -0.13443108E-04 -0.30872696E-04  0.12071697E-03 -0.27450502E-04
  0.27472483E-05 -0.74260737E-05 -0.93899413E-05  0.54069792E-04 -0.12078383E-03
  0.37442576E-03  0.78079306E-04  0.69819177E-03 -0.51670903E-03 -0.12716796E-03
 -0.80516891E-04  0.31348642E-05 -0.46775309E-05 -0.16393903E-05  0.30126577E-05
  0.20446753E-05  0.33105122E-05 -0.17864889E-05 -0.11505436E-05  0.68965355E-05
  0.26302539E-05 -0.59015635E-05  0.35945958E-04  0.38654775E-04  0.99559773E-04
  0.46842332E-05 -0.52316109E-04 -0.48010052E-04  0.14084282E-04 -0.34811686E-04

  0.20127095E-05 -0.23534112E-06 -0.17330972E-05  0.63198847E-05  0.17920204E-06
 -0.18699544E-04 -0.34381210E-06  0.52289959E-05 -0.18123366E-05 -0.85817647E-06
  0.11466990E-06 -0.39952358E-06  0.77748718E-06  0.12940067E-05 -0.10973392E-05
 -0.17457382E-06  0.37775050E-06  0.11623156E-05  0.28127350E-04  0.49804941E-05
  0.19605019E-04  0.54895664E-04  0.18029142E-04 -0.65696732E-04 -0.17120605E-04
 -0.11479527E-04  0.22089829E-04 -0.96383735E-06 -0.13177104E-05  0.11668479E-05
  0.22527351E-05  0.18359279E-05 -0.56882616E-05 -0.12656653E-05  0.39952776E-06
  0.25612729E-05  0.27185305E-04  0.11905517E-05  0.47773244E-04  0.21679295E-04
 -0.25168195E-04  0.12724349E-04  0.19416463E-04 -0.54499884E-06 -0.64155334E-05
  0.18621471E-05  0.29771677E-05  0.24847943E-05 -0.15659690E-05  0.26585051E-05
 -0.21197757E-05 -0.11543678E-05 -0.73848992E-06  0.53029479E-06 -0.18011878E-05
  0.19851380E-05 -0.47862450E-06  0.78328008E-06  0.95709285E-06  0.11037000E-05
  0.35492666E-06 -0.17381161E-06  0.11269258E-05 -0.14024193E-06 -0.21435250E-05
  0.40123958E-06  0.51197667E-06 -0.39621147E-06  0.50746531E-06  0.43214270E-07
 -0.22710020E-05  0.46459331E-07 -0.16255749E-05 -0.33104999E-06  0.21514289E-07
  0.29148310E-06  0.39104129E-05 -0.54336221E-06  0.40316339E-07 -0.99638927E-06
 -0.11851579E-06  0.35811650E-05  0.11702694E-05 -0.15361258E-05  0.10486209E-05
 -0.74380084E-06 -0.75229769E-05 -0.55584517E-07  0.40082944E-06 -0.76146510E-06
 -0.44637669E-05  0.14234501E-04 -0.24000329E-04  0.24754301E-04 -0.68410759E-06
 -0.48132534E-04 -0.14956641E-04  0.10914589E-04  0.88666485E-05  0.42950432E-06
 -0.19991664E-05  0.76115893E-06  0.88420895E-06 -0.76396055E-06 -0.24688195E-05
  0.17216329E-05 -0.32258020E-05 -0.45376414E-06  0.76319567E-05  0.58671916E-05
  0.16870539E-04  0.43294548E-04 -0.86616542E-05 -0.53639308E-04 -0.14095884E-04
 -0.29472502E-04 -0.17971394E-04 -0.47595862E-06 -0.18405604E-05  0.26959848E-05
  0.54616607E-06  0.28590664E-05 -0.61288623E-05  0.18587353E-06 -0.11715108E-05
  0.56350119E-06 -0.13966597E-04 -0.34558653E-04  0.21301620E-04  0.65680175E-05
  0.27665757E-04  0.92116900E-05 -0.16586017E-04  0.30992362E-05 -0.64044073E-05
 -0.85111936E-06 -0.18925672E-06  0.60999112E-06 -0.14898700E-05  0.28413115E-05
  0.73616929E-06  0.10617846E-06 -0.78564935E-06  0.12352133E-05  0.10947232E-05
 -0.22415131E-04 -0.66290225E-05  0.17429972E-04 -0.74916202E-05 -0.59637066E-04
 -0.85980838E-05  0.10257827E-04  0.27455902E-04 -0.14528479E-06  0.15143697E-05
 -0.11688419E-05 -0.10706743E-05 -0.15427642E-05  0.41865215E-06  0.60851812E-06
 -0.41177404E-06  0.29053003E-05 -0.14609433E-05  0.13729005E-05  0.37677403E-06
  0.12669388E-05 -0.71847089E-06  0.17184870E-05  0.80516807E-06  0.73799946E-06
 -0.41994973E-05 -0.29698838E-06 -0.43352804E-06  0.27025751E-05  0.11082663E-05
  0.12701999E-05 -0.44881072E-05 -0.92854467E-07  0.10866572E-05 -0.52194540E-06
 -0.34681213E-06  0.19705455E-06  0.42861487E-06 -0.28770520E-06 -0.13008887E-05
  0.61842652E-06 -0.58926565E-07  0.24658053E-05  0.10407324E-06 -0.63986181E-06
 -0.10703322E-04  0.55860318E-05 -0.12710642E-04 -0.27450502E-04  0.69229253E-04
 -0.31943756E-05  0.69511737E-05  0.43538383E-05 -0.58460141E-05 -0.71193166E-05
 -0.19830826E-03  0.66884132E-05 -0.13557024E-03  0.12763955E-03 -0.28309450E-04
 -0.29908670E-04  0.20945183E-03 -0.46222088E-06 -0.17268123E-05 -0.19464997E-06
 -0.21217060E-05 -0.21961950E-06  0.38394798E-05 -0.29657085E-05 -0.25512393E-05
 -0.92429227E-06 -0.28484542E-04 -0.70659477E-05 -0.31329495E-04 -0.15708593E-04
 -0.18808582E-04  0.20445930E-04  0.39981102E-07 -0.24565769E-04 -0.25396833E-04

  0.17897835E-05  0.19552870E-05  0.17800893E-05 -0.17617834E-05 -0.31943493E-06
  0.40991287E-05  0.46313624E-06  0.57487330E-06 -0.10729327E-06  0.22395443E-06
  0.42661531E-05  0.21929985E-05 -0.25953617E-05  0.23929102E-05  0.16670224E-05
 -0.19686657E-05 -0.51548494E-07  0.37103060E-06  0.40257980E-05  0.27652043E-04
  0.20346235E-04 -0.19097748E-05 -0.36389512E-05  0.23152950E-04  0.10156797E-05
 -0.14330778E-04 -0.33202508E-05  0.25542607E-05 -0.17676499E-05  0.19647071E-05
  0.42519963E-06 -0.19446213E-06 -0.27975019E-05 -0.10388292E-05 -0.13096077E-05
 -0.19715753E-05 -0.17346795E-04  0.12541970E-04 -0.91311661E-05  0.23989084E-05
  0.66086813E-04 -0.19736466E-04  0.11091849E-04  0.22123583E-05  0.20121261E-04
 -0.28817723E-05 -0.23360694E-05 -0.18861748E-05  0.54233672E-06  0.13105070E-05
 -0.11177043E-05  0.10638111E-06 -0.15239220E-05 -0.16115428E-05 -0.11862799E-05
  0.15656318E-05 -0.10267095E-05  0.16559487E-05 -0.30747695E-05 -0.67867056E-07
 -0.10200729E-05 -0.60278611E-06 -0.22441710E-05 -0.58655655E-06 -0.21481871E-05
 -0.16519785E-05  0.86301058E-06 -0.19094343E-06  0.16233426E-06 -0.45908848E-06
  0.11802225E-06  0.22392537E-06 -0.27005534E-06  0.34683040E-06 -0.45492627E-06
  0.92259618E-06 -0.42675362E-05  0.31265936E-05  0.14606496E-06  0.26736463E-06
 -0.13072299E-06  0.69057318E-06  0.24610695E-05 -0.27786307E-05 -0.24451675E-05
 -0.31960382E-05  0.23014137E-05 -0.29215192E-06 -0.12790388E-06  0.20499088E-05
  0.10794194E-05 -0.15328483E-04 -0.17804521E-05  0.24055817E-04  0.17272599E-04
 -0.17271837E-04 -0.60662379E-05 -0.16874426E-05  0.74858092E-05 -0.18978638E-06
  0.88553275E-06 -0.21186548E-06 -0.57947013E-06  0.31476200E-05 -0.30573452E-05
  0.18739554E-05  0.16401240E-05  0.12373058E-05  0.28545265E-04 -0.12038651E-04
  0.14195535E-04  0.47731900E-04 -0.18431481E-04 -0.17564232E-04 -0.15205537E-06
 -0.25147628E-05 -0.84478448E-06  0.17432574E-05  0.27078351E-05  0.59306336E-06
  0.27273785E-05 -0.53179164E-05  0.17440371E-05  0.19625434E-06  0.44580313E-06
 -0.17317703E-05  0.26236681E-04  0.89402970E-05  0.16148861E-05 -0.14858911E-04
 -0.18801020E-04 -0.25700111E-04  0.12461946E-04  0.23601550E-05 -0.64693277E-05
  0.40255711E-06  0.24948628E-05  0.80898947E-06 -0.23086579E-05 -0.20353303E-05
  0.31070482E-05  0.72512416E-07 -0.11690605E-05  0.69302735E-06 -0.45458436E-06
 -0.21178017E-04  0.21454607E-04  0.64677032E-05  0.23742975E-04 -0.10977332E-04
 -0.25992721E-04  0.12874697E-05 -0.64404061E-05 -0.10999449E-05 -0.16399860E-05
 -0.12417537E-05 -0.11874327E-05  0.13205971E-05  0.10349909E-05  0.29249192E-06
  0.20990880E-06 -0.34516779E-06  0.64508687E-07 -0.38722209E-06  0.36886753E-06
  0.72702738E-06  0.25158075E-05  0.56668620E-06  0.19030328E-05  0.14784483E-05
  0.10471551E-05  0.27790227E-06 -0.64186198E-08  0.10095135E-06  0.88788081E-06
  0.15724269E-05 -0.25672629E-06  0.23314136E-05 -0.36942256E-06  0.18865975E-05
  0.18426466E-06  0.13217001E-05  0.26366001E-05  0.19886687E-05  0.18958406E-05
 -0.20192817E-05 -0.69453836E-06  0.18634029E-06  0.31588557E-05  0.15324970E-04
 -0.33410054E-05  0.53406450E-05  0.51622870E-05  0.27472483E-05 -0.31943756E-05
  0.49514163E-04  0.22117402E-05  0.44280009E-05 -0.22559875E-03  0.11132469E-03
  0.14766508E-03  0.59313688E-05 -0.12772725E-04 -0.31777586E-04  0.19111431E-03
  0.27892416E-03 -0.70633306E-04 -0.12099070E-05 -0.53433460E-05  0.50967756E-05
  0.47351889E-05 -0.12852998E-05 -0.34575288E-05 -0.12197226E-07  0.25575668E-05
  0.77450891E-05  0.12663911E-04 -0.85148577E-05 -0.12631877E-04  0.48402136E-04
 -0.90278425E-05 -0.31185383E-05  0.71411887E-05  0.88421411E-05 -0.48980770E-04

  0.34962149E-05 -0.10103685E-05  0.33998538E-05 -0.27515130E-05 -0.20967762E-05
  0.43261557E-05 -0.69518936E-06 -0.36281279E-05 -0.96995558E-06  0.22575601E-06
 -0.46503011E-06 -0.31824416E-05 -0.13417035E-06 -0.16294865E-05  0.17247182E-05
 -0.59427590E-06 -0.19508731E-05  0.22351946E-05  0.11334708E-04 -0.10570371E-04
 -0.67815046E-05 -0.91352854E-05  0.25754033E-04 -0.19967424E-04  0.21179468E-04
 -0.12750593E-04  0.65683553E-05  0.73971556E-06  0.18269401E-05 -0.24795150E-05
  0.38185632E-06  0.42045514E-05 -0.51998422E-06  0.69828845E-06  0.28400681E-08
  0.26128511E-07  0.18459857E-04  0.17690636E-07  0.18135939E-04  0.38594127E-05
  0.93862999E-05 -0.99657627E-05  0.23372856E-05  0.14627163E-04  0.83077908E-05
  0.19157755E-06 -0.10670191E-05  0.30463225E-05 -0.19100781E-06  0.13238579E-05
 -0.77028567E-06 -0.46585458E-07 -0.15417809E-05  0.20037945E-05 -0.87621124E-06
 -0.32228636E-07 -0.30000705E-05  0.93895475E-07 -0.21273629E-06  0.17953417E-06
  0.21304027E-06  0.72663747E-07 -0.12241145E-05 -0.31760192E-06 -0.98093071E-06
 -0.29298369E-06  0.14090151E-05 -0.24073883E-06 -0.23077908E-05  0.38355159E-06
 -0.63298614E-06  0.40108433E-06 -0.92122207E-06 -0.11382130E-05 -0.37933654E-05
  0.30150566E-06 -0.21665363E-06 -0.33528224E-07 -0.85671614E-06 -0.89993038E-07
 -0.12353634E-05  0.75318162E-06 -0.18290089E-06  0.18295278E-05 -0.13149151E-05
 -0.26477851E-06  0.17879044E-05 -0.64559524E-06 -0.45863219E-06 -0.22896715E-05
 -0.27363208E-05  0.45748031E-05 -0.36103521E-05  0.21825679E-04 -0.12513018E-04
 -0.18705933E-04 -0.13663205E-05  0.56110826E-05  0.11115486E-05 -0.69474934E-07
 -0.17456730E-05 -0.12395171E-05 -0.49185819E-06 -0.12466757E-05 -0.40824612E-05
  0.13395784E-06 -0.24518719E-05  0.33272171E-05  0.13379587E-04 -0.15214903E-04
  0.93283426E-05  0.49518033E-04 -0.40950657E-05 -0.61695891E-04 -0.14247959E-04
 -0.11266350E-04 -0.20386345E-04 -0.58751615E-06 -0.29776076E-06  0.14476318E-05
  0.19695435E-05 -0.15913061E-05 -0.93627992E-06 -0.69188940E-06 -0.12999061E-07
  0.82717675E-07  0.50394152E-05 -0.53091176E-05 -0.50964791E-05 -0.37236832E-05
  0.26740349E-05 -0.18794857E-05 -0.20654265E-05 -0.65524404E-05 -0.17310564E-05
 -0.10104011E-05 -0.48030696E-06  0.75618385E-06 -0.47585163E-07  0.60868058E-07
  0.36045972E-06 -0.56627270E-06 -0.96979036E-06  0.18377733E-06  0.10547148E-06
 -0.95911400E-05  0.11245591E-04  0.11127409E-04 -0.69465301E-05  0.88243095E-06
  0.99778913E-06  0.26809309E-05  0.40733613E-05 -0.54685077E-06 -0.86464018E-06
  0.20694909E-06  0.60440679E-06  0.84831770E-07 -0.13963490E-05  0.22156052E-05
 -0.61766532E-06  0.79565768E-06 -0.11184052E-05  0.66756113E-06 -0.19775906E-05
  0.99036803E-06  0.55702411E-06  0.73387111E-06  0.45036551E-06  0.13960949E-05
  0.98167553E-06  0.76872608E-06 -0.34692308E-06 -0.89954797E-06 -0.23959462E-06
  0.80569008E-06  0.78237961E-06 -0.23654802E-06 -0.14420144E-05 -0.10932707E-05
 -0.21421175E-05 -0.44454604E-06 -0.66450537E-06  0.22867038E-06 -0.63491420E-06
  0.28238535E-05 -0.33816969E-06  0.46143554E-06  0.11483849E-05  0.74511142E-05
 -0.12638437E-05  0.35779301E-05  0.95663690E-05 -0.74260737E-05  0.69511737E-05
  0.22117402E-05  0.31328773E-04  0.48107230E-05 -0.48663898E-04  0.20441836E-04
 -0.10015685E-03 -0.57930613E-05 -0.76940939E-04  0.20898644E-03  0.94658745E-04
 -0.28605245E-04  0.59321348E-04  0.12305825E-05  0.36763315E-05 -0.47579338E-07
 -0.30187402E-05  0.50217872E-05 -0.16831951E-05  0.38334057E-06 -0.15796869E-05
 -0.28635390E-05 -0.43983125E-05  0.33791325E-05 -0.31177467E-04 -0.43273599E-05
  0.89262671E-05 -0.16281133E-04 -0.18464479E-06 -0.13809535E-04 -0.97539830E-06

 -0.29331861E-06 -0.32039053E-05 -0.56029927E-06  0.29467143E-05 -0.37022687E-05
 -0.39704876E-06  0.24367209E-06  0.42940346E-06 -0.41305699E-05 -0.67599499E-06
  0.11570286E-05 -0.23027468E-05 -0.42578544E-06 -0.22509112E-05  0.16245021E-05
 -0.18901511E-05 -0.73907542E-06 -0.54101167E-06  0.22157961E-04 -0.51287051E-05
 -0.12269120E-04  0.55815395E-04 -0.84323725E-04 -0.46552307E-05 -0.22563695E-04
  0.11938578E-04  0.34121333E-04  0.20815942E-05  0.46779353E-07  0.18628061E-05
 -0.30302278E-05  0.19252843E-05  0.26864907E-05 -0.28479674E-05 -0.12797544E-05
 -0.16372967E-05 -0.24009312E-04 -0.24628218E-04 -0.47516174E-04  0.52871254E-05
  0.32926146E-04  0.24412136E-05  0.18036779E-04  0.17409109E-05  0.57210348E-04
 -0.35678964E-06  0.93429974E-06 -0.22103758E-05  0.86306083E-06 -0.26149892E-05
 -0.19877617E-05 -0.94642595E-06  0.48206042E-06  0.21829903E-06 -0.14472196E-05
 -0.19358820E-05  0.11302766E-05  0.93696210E-06  0.22570047E-06  0.12638621E-05
 -0.31415158E-06  0.23741447E-06 -0.12277927E-05 -0.15892680E-05 -0.64963052E-07
 -0.78809314E-06  0.53778818E-06  0.54359711E-06  0.12459442E-05  0.14226421E-05
  0.26043507E-06  0.63783341E-06 -0.72667904E-06 -0.17908617E-05 -0.85931298E-06
  0.23627306E-05 -0.18082009E-05 -0.12717478E-05 -0.37815603E-06  0.80086064E-06
 -0.18304599E-05 -0.13088817E-05  0.49823415E-05 -0.25950340E-05 -0.20931411E-05
  0.29805742E-05  0.23077879E-05 -0.11063743E-05  0.14508844E-05  0.28069188E-05
  0.16416918E-04 -0.33800721E-05  0.56981448E-05 -0.28042049E-05 -0.23234602E-04
 -0.18136417E-04  0.19144140E-05  0.14045040E-04 -0.12044366E-04  0.14259010E-05
  0.16811901E-05  0.37260251E-05  0.25010217E-05  0.24019021E-05 -0.38274403E-05
  0.11486008E-05 -0.99420259E-06 -0.19331893E-05  0.14268527E-04  0.92867507E-06
  0.37517775E-06  0.92979105E-05 -0.28442412E-04  0.15286484E-04 -0.71509557E-05
  0.19402369E-05  0.17318728E-04  0.52353574E-06 -0.47562484E-05  0.44622508E-05
  0.21335728E-06  0.75262412E-06  0.19751341E-05  0.80862891E-06 -0.51035821E-06
 -0.27830135E-06 -0.53019593E-05 -0.32234074E-04  0.42846227E-05  0.33504810E-05
  0.27973864E-04  0.20601299E-04 -0.16153198E-04 -0.12534327E-04 -0.30507274E-05
 -0.99901529E-06 -0.70287775E-06  0.25085011E-05 -0.13989460E-05 -0.28724772E-06
  0.25495830E-05  0.10734839E-05 -0.22174313E-05 -0.98217963E-06 -0.56271076E-05
 -0.42262179E-05  0.45429219E-04 -0.19585290E-05  0.64814228E-04 -0.12137890E-04
 -0.10415972E-04  0.19932023E-05 -0.19767541E-04 -0.23602928E-06 -0.82904945E-07
 -0.76655149E-06 -0.71591137E-06  0.16880192E-05  0.13738638E-05  0.97060081E-07
  0.30097259E-06 -0.14435647E-05 -0.83157564E-06  0.78210059E-06 -0.10002512E-05
 -0.72090149E-06  0.57846632E-05  0.41171542E-05  0.26801611E-05  0.51521047E-06
  0.30280480E-05 -0.13640631E-06 -0.88525860E-06  0.16357714E-05  0.13471383E-05
  0.45571541E-06 -0.40456272E-06 -0.14194768E-06  0.16528791E-06  0.32532241E-05
  0.16365261E-05  0.11284165E-05  0.74331631E-06  0.15892934E-05  0.12222001E-06
 -0.12135040E-05  0.20615723E-05  0.39228975E-06  0.87271928E-06  0.10198039E-04
  0.88919517E-05  0.13948447E-04 -0.16311894E-05 -0.93899413E-05  0.43538383E-05
  0.44280009E-05  0.48107230E-05  0.59523715E-04  0.67622867E-05  0.20914924E-03
 -0.15405010E-03  0.52197004E-04 -0.19180775E-03  0.93869317E-03  0.43679506E-06
 -0.54466857E-04  0.11551935E-03  0.54913639E-05  0.35906940E-05 -0.14337298E-05
 -0.10038309E-05  0.62237480E-05  0.31479050E-07  0.86433810E-05 -0.48776877E-05
 -0.25874743E-05 -0.13031320E-05  0.27866431E-05  0.30080592E-04  0.32108740E-05
  0.64483431E-05 -0.18789193E-04 -0.29319111E-04  0.17969991E-06 -0.59597130E-05

 -0.15780121E-04 -0.19248374E-04 -0.18799597E-04  0.29176378E-04 -0.73223401E-05
 -0.25617196E-04  0.20102075E-05 -0.48568096E-05 -0.11684704E-04  0.11174489E-04
 -0.40704501E-04 -0.16158899E-04 -0.33238513E-04  0.13327939E-05 -0.11897729E-04
  0.15622202E-04  0.10067153E-05  0.12333079E-04  0.23385436E-04 -0.35659404E-04
 -0.31670828E-03  0.87902956E-04 -0.50687824E-03  0.78146310E-04 -0.62196786E-03
  0.12070597E-03 -0.76864687E-04 -0.17946189E-04 -0.97901134E-06  0.13969737E-04
 -0.63459195E-04 -0.63588024E-05  0.37535619E-04  0.26348906E-05 -0.24664624E-04
  0.11750937E-05  0.88194514E-04  0.94150454E-04 -0.93663186E-04 -0.14803941E-03
 -0.26958885E-03  0.14766887E-03 -0.55812854E-04 -0.22967620E-03  0.14437782E-03
 -0.51035309E-05  0.87219611E-05  0.32075305E-05  0.14970423E-05 -0.34710904E-04
  0.12915205E-04 -0.10080439E-04  0.20542318E-04  0.55722304E-05  0.14057573E-04
 -0.33527484E-04  0.19434151E-04 -0.19840598E-04  0.31463124E-04  0.79682138E-06
  0.93781008E-05  0.19009324E-04  0.11743925E-04  0.17324658E-05  0.21492596E-04
  0.89120823E-05 -0.19812453E-04  0.39046440E-05  0.51919308E-05 -0.48995132E-05
 -0.16501930E-05  0.36586363E-05  0.48002100E-05  0.10006714E-04 -0.59330796E-05
  0.60619412E-05  0.26452544E-04 -0.30360261E-04  0.42380341E-05  0.18326039E-05
  0.12440173E-05 -0.13960904E-04  0.75863247E-05 -0.55171630E-06  0.10385828E-04
  0.20531496E-04 -0.11244430E-04 -0.97690947E-06  0.88618172E-05  0.65579110E-05
  0.47866674E-04 -0.23433626E-03  0.42000691E-04 -0.55702418E-04 -0.35228252E-03
  0.86114423E-04  0.16521177E-03 -0.37891855E-04 -0.64579231E-04  0.20012406E-04
  0.61261930E-05  0.21252042E-04  0.90985447E-05  0.35012516E-06  0.10782360E-04
 -0.63577249E-05 -0.52299894E-05 -0.17320198E-04 -0.22781481E-03  0.14543027E-03
  0.11601825E-03 -0.75341806E-03  0.24792218E-03  0.71088867E-04  0.20161595E-03
  0.13319941E-04  0.11913620E-03  0.20800450E-05 -0.10900486E-04  0.46193604E-05
  0.35543607E-05  0.22991206E-04 -0.14311941E-05  0.24047930E-05  0.19594763E-05
  0.67882384E-05 -0.48634523E-03  0.25113330E-03  0.86318479E-04 -0.21916498E-03
  0.25197920E-03  0.21214869E-03  0.63227522E-04 -0.73907276E-04  0.13472490E-03
  0.59065908E-05 -0.50152444E-05  0.10540623E-04  0.67531533E-05 -0.33987456E-05
 -0.93402942E-05 -0.53141510E-05  0.77929443E-05 -0.16935263E-04 -0.58329058E-07
  0.19170632E-03 -0.26884097E-04  0.19640196E-04  0.78804657E-05  0.22966076E-04
  0.11576734E-03  0.50643683E-04  0.35063647E-05 -0.35984787E-05  0.10403321E-04
  0.11097581E-04  0.33994825E-05 -0.17412247E-04  0.12212856E-05 -0.16894777E-04
 -0.10461333E-04 -0.96062271E-05 -0.23819918E-05  0.65305906E-05  0.12612778E-04
 -0.18572854E-04 -0.10177872E-05 -0.60659446E-05  0.68892411E-05 -0.12055036E-04
  0.44089114E-05 -0.57894904E-05 -0.29677154E-05 -0.52224265E-05 -0.82994076E-05
 -0.17544323E-04  0.10912236E-04  0.94219043E-05  0.25001691E-05  0.15217737E-04
 -0.13233456E-05 -0.24812742E-05 -0.17267445E-04  0.66467425E-05 -0.63665042E-05
  0.16474354E-05  0.18475275E-04 -0.49409651E-05 -0.32775508E-04 -0.20181596E-03
 -0.10614688E-05 -0.31356708E-04 -0.51014271E-04  0.54069792E-04 -0.58460141E-05
 -0.22559875E-03 -0.48663898E-04  0.67622867E-05  0.38933093E-02 -0.15138338E-02
 -0.19165538E-02  0.16297937E-04  0.62727608E-03  0.78328739E-03 -0.16086580E-02
 -0.18788978E-02  0.80309360E-03 -0.68027269E-08  0.51007882E-06 -0.22905937E-04
 -0.17671018E-05  0.17634530E-04  0.83268743E-05  0.13209601E-04 -0.12079212E-04
 -0.15080890E-04 -0.47756911E-04  0.17769302E-04  0.32813471E-03  0.34605551E-03
  0.53008223E-04 -0.16946037E-03 -0.98397301E-04  0.13368092E-04  0.83224603E-04

 -0.14679375E-05 -0.68777673E-04  0.43046876E-04 -0.11874799E-04  0.46758724E-05
  0.41785817E-04  0.25713245E-06 -0.90722859E-05 -0.27507988E-05 -0.43714645E-04
  0.77408855E-04 -0.34724538E-04  0.40626781E-04 -0.97868841E-04  0.44799834E-04
 -0.54028045E-04  0.84057176E-05 -0.40954520E-04 -0.35129453E-04  0.59485926E-05
  0.25620302E-03 -0.91107076E-04  0.60662301E-03 -0.39716027E-03  0.91456226E-03
 -0.74706167E-04  0.97488712E-04  0.39311713E-04  0.83098965E-04 -0.21931100E-05
 -0.26816147E-04  0.10287401E-03  0.93692355E-05 -0.74206555E-04  0.67091981E-05
 -0.51039786E-05 -0.34797929E-03 -0.44996282E-03 -0.33488634E-03  0.13208848E-03
 -0.74091531E-04  0.88201249E-04  0.12023759E-03  0.14919690E-03  0.56971942E-04
  0.31633214E-04 -0.13609513E-04 -0.14343776E-05  0.22228265E-04 -0.48017755E-04
 -0.42587106E-05  0.40157767E-05 -0.61551449E-05  0.15125173E-05 -0.73897604E-06
  0.13176445E-04  0.97277530E-05  0.13461403E-04 -0.26035068E-04  0.18066467E-04
 -0.14674905E-04 -0.59269130E-05 -0.17820601E-04  0.32275251E-06 -0.16442363E-04
 -0.79740615E-05  0.36287428E-04  0.88534972E-05  0.15159945E-05  0.51891279E-05
  0.17166423E-04  0.20570184E-05 -0.31101988E-04 -0.37993352E-04  0.20642058E-04
  0.78322867E-05  0.20850903E-04  0.11819551E-04 -0.40707250E-05  0.11929654E-04
 -0.69651137E-05  0.26710872E-05  0.18064302E-04 -0.14672115E-04 -0.11505959E-04
  0.64867389E-05  0.31246972E-04 -0.24509261E-05  0.10083101E-04 -0.12154257E-04
 -0.35171781E-04  0.14882616E-03 -0.59186995E-04  0.11437486E-04  0.59062238E-04
 -0.34645218E-03 -0.19764103E-03  0.97499643E-04 -0.64729684E-03  0.87981310E-05
  0.46526937E-04  0.34646833E-05  0.92198604E-05  0.22403737E-05 -0.27023919E-04
  0.10344796E-04 -0.14207904E-04 -0.49805363E-05  0.30349047E-04  0.31890180E-03
  0.42467973E-03  0.41675019E-03 -0.15909796E-03 -0.62195693E-04 -0.17690876E-04
  0.14472197E-03  0.99308268E-04 -0.11524065E-04 -0.59467517E-04  0.96309994E-05
 -0.14790288E-04 -0.44175498E-05  0.14209543E-05  0.39936519E-04  0.12197128E-04
  0.50633423E-05  0.14886854E-03 -0.31752089E-03  0.54446678E-03  0.61049560E-03
  0.71805480E-04  0.86641803E-04 -0.52791347E-03 -0.10813042E-03  0.29506916E-03
 -0.14253880E-04 -0.80854721E-05  0.35395338E-05 -0.39077023E-05  0.43848517E-05
  0.18327761E-04  0.14976532E-04 -0.19746912E-04  0.28734817E-05  0.15544875E-04
 -0.38994938E-03  0.37886039E-03  0.61148369E-05 -0.49902171E-04 -0.57935899E-04
 -0.16962654E-04 -0.12840495E-03  0.31575033E-03  0.13850110E-04  0.14188477E-04
 -0.17133589E-04 -0.18611971E-04  0.49692216E-04  0.12487590E-04 -0.54303379E-06
  0.10377925E-04 -0.22271366E-04 -0.58402906E-05  0.10150442E-04 -0.21799256E-04
  0.70175196E-05  0.27512578E-04  0.31991199E-05  0.19970791E-04  0.86375408E-06
  0.34257922E-05 -0.30069455E-05 -0.25091782E-05  0.58652083E-05  0.14198168E-04
  0.71348132E-06  0.24960071E-05 -0.23826909E-04 -0.57344083E-05 -0.23019281E-04
 -0.19534656E-05 -0.24513675E-05  0.13041273E-06  0.21839600E-04 -0.18136551E-04
 -0.15593315E-04  0.20366548E-05 -0.12630301E-04  0.27451407E-04  0.25733142E-03
  0.27211926E-03  0.20499461E-03 -0.17150113E-03 -0.12078383E-03 -0.71193166E-05
  0.11132469E-03  0.20441836E-04  0.20914924E-03 -0.15138338E-02  0.78369667E-02
  0.29545642E-02  0.18315931E-02 -0.28951877E-02  0.42958245E-02  0.83494355E-03
  0.30553651E-03 -0.10425397E-02  0.36821406E-04  0.13736262E-04  0.82962864E-05
 -0.11531908E-04  0.36371231E-04 -0.15468675E-05  0.65611421E-04 -0.26708850E-04
 -0.14253032E-04  0.18063328E-03  0.93574005E-04 -0.53633960E-03 -0.69995500E-03
  0.20378751E-04 -0.10754722E-03  0.28579476E-04  0.86223878E-04  0.25696411E-03

 -0.16614853E-05  0.38528952E-04  0.26567165E-04 -0.64691762E-04  0.90079310E-04
  0.74929793E-04 -0.80926316E-05  0.14959332E-04  0.93154224E-04 -0.51132463E-04
  0.79324282E-04  0.73937016E-04 -0.12863198E-04  0.23909511E-04  0.63868935E-04
  0.83438691E-05  0.24940206E-06 -0.63461249E-05 -0.43525858E-03  0.82740580E-03
  0.55842439E-03  0.10125538E-02  0.35499407E-03  0.79713489E-04  0.29653693E-03
  0.15056565E-03 -0.42020800E-03  0.40771694E-04  0.36513946E-04 -0.27562906E-04
 -0.84565009E-06 -0.70831643E-06 -0.87853485E-04 -0.41469991E-04 -0.36142611E-04
 -0.26791142E-04 -0.28655061E-03 -0.83673356E-04  0.17993117E-03 -0.26482482E-03
  0.27457230E-04  0.51677549E-03  0.19013560E-03  0.50237646E-03  0.35528044E-04
  0.31636666E-04 -0.96390172E-05  0.69611355E-05  0.27505700E-04  0.13114533E-04
  0.14012982E-04  0.24325831E-04 -0.61469081E-05 -0.85923210E-05  0.27715758E-04
  0.47590822E-04  0.12243438E-04  0.52254720E-04 -0.21794361E-04 -0.94839484E-05
 -0.30875683E-04 -0.16438293E-04  0.85054593E-05  0.81966645E-05  0.44457389E-05
 -0.79358722E-05  0.23828278E-04  0.13377609E-04  0.27010309E-04  0.67013676E-06
  0.25108067E-04 -0.18786942E-05 -0.27552393E-04  0.31007605E-04  0.39007874E-04
  0.72887708E-05 -0.32449170E-04  0.45808908E-04  0.44806896E-05  0.79018395E-05
  0.14872031E-04 -0.30016743E-04 -0.69135189E-04 -0.47391265E-04 -0.83426918E-05
 -0.10332083E-04  0.16520798E-04  0.24764750E-04 -0.23571860E-04  0.15857611E-04
 -0.63975810E-04  0.33041693E-04 -0.37996017E-03 -0.39976403E-03  0.79146310E-03
  0.13996855E-03 -0.19037767E-03 -0.16926720E-03  0.27377375E-03 -0.20232121E-04
  0.61622168E-04 -0.31175156E-04  0.10541805E-04  0.27905059E-04 -0.69792683E-05
 -0.29879041E-04  0.12750941E-04 -0.21775579E-04  0.38912112E-03  0.29761480E-03
  0.23079030E-03  0.32784598E-04  0.30536324E-03  0.36115193E-04  0.16081697E-03
 -0.39774162E-03  0.58085413E-03  0.23516266E-04  0.22876751E-04 -0.13547537E-04
  0.83063301E-05 -0.59140891E-04  0.34350314E-04 -0.16902922E-04 -0.17121019E-04
 -0.34512521E-04  0.41742879E-03  0.43729133E-03 -0.17908208E-03 -0.21455002E-03
 -0.10212651E-02  0.15178166E-03  0.27088567E-03  0.30420016E-03 -0.44356662E-03
  0.13471945E-04 -0.61156158E-04  0.18728466E-04  0.17308481E-04 -0.72164142E-04
  0.49795267E-04  0.62158685E-05 -0.13995130E-04 -0.69583932E-05  0.16599945E-03
 -0.12830233E-03  0.40308276E-03  0.57691742E-04 -0.77800733E-04 -0.89207909E-04
  0.14568717E-03  0.40196569E-04  0.15524306E-03  0.41899953E-05  0.11639948E-04
  0.22547270E-04 -0.19250275E-04  0.31338904E-04  0.20809583E-04 -0.45718665E-05
  0.29831099E-04 -0.40602034E-04  0.16691922E-04 -0.41816052E-04 -0.25189515E-05
  0.11569021E-04  0.29951235E-05 -0.29475614E-04 -0.16511501E-04 -0.29589029E-04
 -0.64120064E-05 -0.25017190E-04  0.44268907E-04 -0.25298189E-04  0.40953624E-05
  0.15289418E-04  0.23117666E-04  0.12302694E-04  0.79910098E-05  0.14613282E-04
 -0.26129387E-04  0.91705443E-05  0.18445309E-05 -0.25182973E-05  0.21323565E-04
 -0.14775166E-04 -0.17750940E-04  0.20708383E-06  0.38810650E-04  0.10962557E-03
  0.37496809E-03 -0.99258422E-04 -0.20818680E-03  0.37442576E-03 -0.19830826E-03
  0.14766508E-03 -0.10015685E-03 -0.15405010E-03 -0.19165538E-02  0.29545642E-02
  0.12254041E-01  0.14718874E-02  0.22078102E-02 -0.62526735E-02  0.27245420E-03
  0.88246906E-03 -0.26361731E-02 -0.10734497E-04 -0.73457974E-05  0.28020420E-04
  0.19067863E-04 -0.20359864E-04 -0.97188966E-05  0.82801699E-05  0.34314965E-04
  0.38451292E-05  0.18069340E-03  0.34027001E-03 -0.39615121E-03 -0.32680014E-03
  0.22865748E-03 -0.59961996E-04  0.63872345E-05  0.11715734E-03 -0.12680233E-03

 -0.71945405E-05 -0.33062719E-05  0.40685593E-04  0.62074143E-05  0.25812993E-04
  0.28173058E-04 -0.23195426E-05 -0.16534400E-04  0.21943729E-04  0.60689293E-04
 -0.69699296E-06  0.23039352E-04  0.22364207E-04 -0.10202483E-04  0.30719344E-04
 -0.30275585E-04 -0.70383349E-05 -0.16513220E-05  0.12761546E-03  0.29756311E-03
 -0.15331872E-03  0.10325649E-03  0.69969290E-04 -0.86412751E-04  0.94952210E-04
 -0.91024096E-04  0.49831562E-04  0.50645916E-04  0.42455097E-05  0.71294411E-04
 -0.12114201E-04  0.22730267E-04 -0.81048530E-05 -0.12913342E-04  0.20886550E-04
  0.18278748E-04  0.23158356E-03 -0.54868785E-04  0.16286715E-03 -0.77303036E-03
  0.33148033E-03  0.15642464E-03 -0.21941213E-03 -0.43859431E-03 -0.40151952E-04
  0.67155913E-06  0.40309845E-05 -0.34060357E-04  0.27437197E-04 -0.16249492E-04
  0.21486237E-05 -0.27176979E-04  0.26688335E-04 -0.25669174E-05  0.18493004E-04
 -0.13019265E-05  0.22159685E-04  0.77280211E-05  0.15779830E-04 -0.15341709E-04
 -0.94099646E-05  0.12943175E-04  0.43053256E-05  0.26454615E-05  0.10159822E-04
  0.32996302E-05  0.23021164E-04 -0.12840309E-04  0.31636498E-04 -0.70170933E-05
  0.17076671E-04  0.92088000E-06  0.33209011E-04 -0.63349602E-05 -0.10175562E-05
 -0.95462392E-05  0.15397443E-04  0.21583951E-04  0.85982368E-05 -0.95212500E-05
 -0.51941721E-05  0.31767621E-04 -0.38029991E-05 -0.10389143E-04 -0.61697851E-04
  0.12420156E-04  0.25624617E-04  0.32715448E-05  0.66684967E-06 -0.39694829E-05
  0.36471809E-04 -0.48870872E-04 -0.25432834E-03 -0.11306750E-03 -0.88419792E-04
 -0.18339042E-03  0.45914609E-04  0.17990579E-03 -0.13153516E-03  0.69786168E-05
 -0.48202131E-04  0.54546719E-05  0.38826062E-04  0.31632455E-05 -0.12285614E-04
  0.11224237E-04  0.74925722E-05  0.57193474E-05 -0.48908841E-04  0.85515755E-04
 -0.13161719E-03  0.13929183E-02 -0.38953432E-03 -0.48279307E-03  0.28537467E-03
 -0.13364377E-03 -0.20911989E-03  0.17575827E-04 -0.32952034E-04  0.45373897E-05
 -0.37560251E-04  0.50103665E-05  0.15436478E-04 -0.29628327E-05 -0.24596040E-04
 -0.51452068E-05 -0.48755768E-03  0.19318683E-03  0.21923165E-03  0.79890026E-03
  0.49630092E-03 -0.24564191E-03 -0.59126480E-03 -0.27316505E-03 -0.11214373E-04
 -0.36677739E-04 -0.49320859E-05  0.84847489E-05  0.11986713E-04 -0.58390152E-05
  0.15375424E-04 -0.69992971E-05 -0.15259581E-04 -0.25374773E-04 -0.14400131E-04
  0.20834495E-04  0.13645985E-03 -0.41241924E-03  0.34432172E-03 -0.10793636E-03
  0.21742464E-03 -0.15933276E-03  0.35615991E-03 -0.19324075E-04  0.14472112E-04
 -0.23930041E-04  0.27132270E-04  0.11477162E-05 -0.23728413E-04 -0.62428568E-05
 -0.45396661E-05 -0.51820079E-05  0.18591101E-04  0.18014284E-04 -0.97817842E-05
  0.35215578E-04 -0.28802466E-04  0.12990437E-04  0.89175373E-05  0.53971849E-05
  0.76042630E-05 -0.21176112E-04  0.27384406E-05 -0.52092224E-05  0.27581142E-04
  0.61384934E-05 -0.25033783E-05 -0.11049897E-04  0.46188746E-05 -0.15931003E-05
  0.77960605E-05  0.97625351E-05  0.15936527E-04  0.53295697E-05  0.18188295E-05
 -0.11106393E-04  0.53063159E-05 -0.19304964E-05  0.42067766E-05  0.78665951E-04
  0.26243255E-03  0.11715939E-04 -0.23926865E-03  0.78079306E-04  0.66884132E-05
  0.59313688E-05 -0.57930613E-05  0.52197004E-04  0.16297937E-04  0.18315931E-02
  0.14718874E-02  0.78480198E-02 -0.24801527E-02 -0.29413990E-02 -0.10178548E-02
 -0.22798586E-02 -0.11808134E-02 -0.58756709E-05  0.10808739E-04 -0.28817777E-05
 -0.59370980E-04  0.40514751E-04  0.25632142E-05  0.25204893E-04 -0.30487194E-04
 -0.18355609E-04 -0.75832811E-04 -0.15883369E-03  0.15651939E-03  0.12075746E-03
 -0.80754297E-04 -0.35886740E-05 -0.51526694E-04  0.20185769E-03  0.66302644E-04

  0.10238111E-04  0.99474753E-04 -0.37200175E-04 -0.31673395E-04  0.80907918E-04
 -0.21050497E-05 -0.10397740E-04  0.24505225E-04  0.44781209E-04  0.30553732E-04
  0.17228034E-04  0.60493423E-04 -0.11423118E-05  0.74134329E-04 -0.50083884E-04
  0.50521330E-04  0.23614527E-04 -0.60298142E-05 -0.41898094E-03  0.39747425E-03
  0.19475756E-03  0.11156925E-02 -0.10498903E-02  0.19267656E-03 -0.30516464E-03
 -0.55303821E-04 -0.70528904E-03 -0.27429114E-04 -0.30561783E-04 -0.38553378E-04
  0.27536264E-04 -0.76799484E-04 -0.12246949E-04  0.25039908E-04 -0.15719118E-04
 -0.46493023E-05  0.16686102E-03  0.65986526E-03  0.53127127E-03  0.17141490E-03
 -0.34973329E-04 -0.39442968E-03 -0.34759242E-03  0.72118903E-04 -0.28782638E-03
  0.10311259E-04 -0.26571611E-05  0.85647969E-05  0.28226563E-06 -0.39032555E-05
  0.22238016E-04  0.16027816E-04  0.28032088E-05 -0.28983830E-04  0.27070526E-04
 -0.20613411E-04  0.34158253E-05  0.17150367E-04 -0.78084572E-04  0.10348459E-04
 -0.35567044E-05 -0.60067636E-05  0.48170183E-05  0.13664586E-04  0.45618819E-04
  0.11133063E-04 -0.22844427E-04  0.92714227E-05 -0.13300355E-06 -0.27979353E-04
 -0.10204748E-04 -0.15424313E-04 -0.13866994E-04 -0.19589789E-05 -0.91181612E-05
  0.72369723E-05 -0.67567775E-04  0.17165719E-04 -0.29766487E-04  0.40497372E-05
  0.24912011E-05 -0.17409204E-04 -0.78298096E-04  0.78999905E-05  0.58817326E-05
  0.68658666E-04 -0.34730241E-04  0.28944434E-04 -0.90830968E-05  0.87533183E-06
  0.98407739E-05 -0.68159267E-04  0.34563715E-04 -0.21611128E-03  0.73217227E-03
  0.20359834E-03  0.30870950E-03 -0.82874068E-04  0.18141404E-03 -0.40171417E-04
 -0.31046455E-04 -0.25363479E-04 -0.24232421E-04 -0.98693401E-05  0.33305112E-04
 -0.29620299E-04  0.24119928E-04  0.42103895E-05  0.19862820E-03 -0.14540543E-03
 -0.51738368E-03 -0.32814713E-03  0.66885122E-03 -0.67539092E-03  0.32180873E-03
  0.49026336E-04 -0.26112118E-03 -0.22892527E-05  0.10715143E-03 -0.33460587E-05
  0.28987241E-04 -0.38594976E-04  0.23073880E-05 -0.23822063E-04 -0.23016761E-04
 -0.84516281E-04  0.32415609E-03  0.41361277E-04 -0.80800468E-03 -0.12319756E-03
 -0.17814592E-02  0.83643444E-04  0.67589574E-03  0.60402061E-04 -0.80313697E-03
  0.67250688E-05 -0.59263087E-04 -0.11023805E-04  0.10858154E-05 -0.53863416E-04
  0.45659025E-04  0.16341532E-04  0.14205471E-04  0.24111270E-05 -0.15073659E-03
  0.16358071E-03 -0.17484060E-03  0.81623293E-04 -0.11522833E-03  0.86873100E-04
  0.27856178E-04  0.11043789E-03 -0.29410823E-05  0.72472868E-06 -0.32003947E-04
  0.65665004E-07  0.18592696E-04 -0.19074610E-04 -0.29481551E-04 -0.31541703E-05
 -0.10104719E-04 -0.62857327E-05 -0.20985973E-05 -0.11590988E-04  0.29033576E-04
 -0.23880056E-04  0.12706096E-04  0.16485073E-04 -0.43511114E-04 -0.12999370E-04
  0.50348415E-05  0.74867948E-05  0.43260976E-04 -0.99675641E-05 -0.16181656E-04
  0.35908307E-04 -0.16197416E-06  0.49464806E-05 -0.11597750E-05  0.35413889E-04
  0.12300374E-04 -0.67195110E-05  0.92697894E-05 -0.31508818E-04  0.48749187E-04
 -0.67282629E-05  0.37851542E-04 -0.15582378E-04 -0.87406594E-05 -0.23636956E-03
  0.11011034E-03 -0.23016487E-03 -0.13254414E-04  0.69819177E-03 -0.13557024E-03
 -0.12772725E-04 -0.76940939E-04 -0.19180775E-03  0.62727608E-03 -0.28951877E-02
  0.22078102E-02 -0.24801527E-02  0.13218432E-01 -0.93055553E-02 -0.18082506E-02
  0.27552996E-03  0.20646049E-02 -0.15480455E-04 -0.79840388E-05  0.25921007E-04
  0.48879827E-04 -0.39990457E-04 -0.24020736E-04 -0.39409848E-04  0.46893948E-04
  0.28911018E-04 -0.12572722E-04  0.51147088E-03  0.48696468E-03  0.35376119E-03
  0.46163551E-03  0.39621944E-04 -0.40031416E-04  0.57235664E-04 -0.21116559E-03

 -0.61374654E-04 -0.28005729E-03 -0.51687488E-04  0.13835853E-03 -0.20032271E-03
 -0.47042562E-04  0.62796075E-05 -0.60958725E-04 -0.27905207E-03 -0.76245836E-04
  0.27921002E-04 -0.26007447E-03 -0.25759882E-04 -0.98548354E-04  0.48551596E-04
 -0.41395530E-04 -0.85149995E-04  0.20895309E-03  0.66157932E-03  0.57481592E-03
 -0.11572086E-02  0.29386667E-02 -0.16237881E-02 -0.23754055E-03 -0.44621298E-03
  0.53549521E-03  0.13629674E-02 -0.60435321E-04 -0.40155108E-04  0.10073758E-03
 -0.53705756E-04  0.91278463E-04  0.94947505E-04 -0.10647558E-03  0.88444733E-04
 -0.57420242E-04 -0.64409598E-03 -0.19312431E-02 -0.13852008E-02  0.77883468E-03
  0.67799195E-03  0.57176821E-03  0.15962579E-02 -0.33691180E-03  0.18851090E-02
  0.48557854E-04  0.29823279E-04  0.62486744E-04 -0.54017621E-04 -0.41501120E-06
 -0.80879299E-04 -0.13946962E-04 -0.16054715E-04  0.64938765E-04 -0.64236878E-04
 -0.94061660E-04  0.12535313E-04  0.18569594E-04 -0.10632781E-05  0.47972892E-04
 -0.19374508E-04  0.72452728E-05 -0.11611713E-03 -0.48406684E-04 -0.47653712E-04
 -0.96045945E-04  0.47699126E-04 -0.16831896E-04 -0.10889030E-03  0.50984132E-04
 -0.31397807E-04  0.74773487E-04  0.59978627E-07  0.20364582E-04 -0.24527566E-04
  0.73994207E-04  0.85388636E-04 -0.12171087E-03 -0.11285145E-04 -0.60351655E-04
  0.11537116E-04 -0.51738370E-04  0.18729728E-03 -0.16263496E-04 -0.25213949E-04
  0.47647753E-04  0.13314752E-03 -0.36319433E-04  0.46417589E-04 -0.43546697E-06
  0.19473242E-03 -0.54559834E-03  0.11202891E-02  0.11251345E-03 -0.67639953E-03
 -0.12581016E-02 -0.52451124E-04  0.29562691E-06  0.39334724E-03 -0.50878602E-05
  0.10687207E-04  0.11850093E-03  0.93015020E-04 -0.41902062E-05 -0.19576834E-03
 -0.23790767E-04 -0.78130465E-04  0.85922702E-04  0.45555516E-04 -0.62857300E-05
  0.13963614E-02  0.13359330E-02 -0.12526018E-02  0.19968508E-02 -0.44960259E-03
 -0.83861940E-03  0.32253582E-03  0.19461713E-04 -0.12726943E-03  0.78037222E-04
  0.63437292E-04 -0.35116673E-04  0.13330898E-03  0.65600925E-04  0.79020040E-04
  0.12448323E-03  0.14607633E-04 -0.63933854E-03  0.12016679E-02 -0.56302243E-03
  0.12498613E-02  0.83019209E-03 -0.26926037E-03 -0.47582658E-03  0.17898015E-02
 -0.49856979E-04  0.47800907E-04  0.37308743E-04 -0.28085303E-04  0.64165783E-04
 -0.40940519E-04  0.85638905E-04 -0.64776950E-04 -0.32214271E-04  0.21305763E-03
 -0.22851300E-03  0.11851753E-02  0.15463609E-03  0.93429142E-03 -0.33977438E-03
 -0.78620650E-03  0.59547926E-03 -0.66596204E-03  0.22917543E-04 -0.17218573E-04
  0.97017818E-04 -0.28056187E-04 -0.68174872E-04  0.10307667E-03  0.81547135E-05
  0.61782870E-04 -0.80976860E-04 -0.90468788E-05  0.52850738E-04 -0.13581131E-03
 -0.32156856E-04  0.13291377E-03 -0.25033431E-04  0.59590251E-04  0.10557865E-04
  0.68774171E-04 -0.18052446E-04 -0.64152229E-04  0.10477079E-03  0.27558715E-04
 -0.82138965E-05  0.22468371E-04  0.30291559E-05  0.10906675E-05 -0.32128265E-04
  0.70039963E-05  0.79979729E-05  0.13298218E-04  0.14557478E-04 -0.39351885E-04
  0.49804537E-04  0.87299277E-05  0.85800167E-04 -0.12284419E-04  0.24252178E-03
  0.13588905E-03  0.65376098E-03  0.21084377E-04 -0.51670903E-03  0.12763955E-03
 -0.31777586E-04  0.20898644E-03  0.93869317E-03  0.78328739E-03  0.42958245E-02
 -0.62526735E-02 -0.29413990E-02 -0.93055553E-02  0.60339762E-01 -0.10357925E-02
 -0.88868418E-02  0.10576293E-01  0.22886071E-04  0.35301889E-04 -0.39720265E-04
 -0.48470891E-04  0.14834520E-03  0.10345904E-03  0.16261594E-03 -0.17727531E-04
 -0.32197137E-04 -0.36460263E-03 -0.43614231E-03 -0.16697608E-03 -0.21361904E-03
  0.34497470E-03 -0.16527633E-02  0.95790818E-04 -0.88794781E-03  0.17051437E-03

  0.53448677E-04  0.35533083E-04  0.13742549E-04 -0.27607842E-05 -0.44841886E-04
  0.51470691E-04 -0.23089097E-04  0.16970242E-05 -0.81876071E-05 -0.25819451E-05
  0.75753446E-04 -0.16491132E-04 -0.19934458E-04 -0.46056721E-04  0.34101210E-04
  0.60135001E-06 -0.16669023E-04 -0.22084779E-04 -0.17571180E-03 -0.58904871E-03
  0.22793502E-03 -0.27633431E-03  0.52196185E-03 -0.17069336E-03 -0.21154440E-03
 -0.56438698E-04  0.93548739E-04  0.22797151E-04  0.79817707E-04 -0.11989384E-04
  0.41888774E-05  0.65948653E-04 -0.19457344E-04  0.28335141E-04 -0.76195430E-05
 -0.25040881E-04 -0.26675804E-03  0.22448206E-03 -0.22891537E-03  0.19376111E-03
 -0.77860373E-03 -0.40259909E-03 -0.36138080E-03  0.15554632E-03 -0.55119609E-03
 -0.28308246E-05 -0.95352828E-05  0.46274166E-05  0.14763257E-04  0.33863376E-04
 -0.25619646E-04  0.84400376E-05 -0.10758427E-04 -0.45016591E-05  0.12654699E-04
  0.13254579E-04 -0.14860396E-05  0.14152697E-05 -0.16233645E-04 -0.17717122E-05
 -0.66447730E-05  0.79539747E-05 -0.29435601E-04 -0.10528718E-04 -0.40574440E-04
 -0.12352351E-04 -0.13762368E-05  0.39636340E-06  0.14046357E-05 -0.45994629E-05
 -0.76154385E-05 -0.12666706E-04  0.14438621E-05 -0.20711960E-04 -0.20336147E-04
 -0.22401240E-04 -0.52671668E-04  0.34343518E-04 -0.91759289E-05  0.13697597E-04
  0.51901602E-05 -0.15015900E-04 -0.38667480E-05 -0.51111600E-05  0.93839369E-05
  0.11104700E-04 -0.18680637E-04  0.32416093E-05  0.10374374E-04  0.83266317E-05
 -0.11711579E-03 -0.12212441E-03  0.26578949E-03  0.44813494E-04 -0.15185755E-03
  0.31971152E-04 -0.58770670E-04 -0.98058233E-04  0.96647483E-04 -0.90044616E-05
 -0.15027904E-04 -0.27669030E-04 -0.35453544E-04  0.26020688E-05 -0.21013082E-05
  0.14100259E-04  0.33618840E-05  0.34252826E-04  0.51677958E-04 -0.41718250E-03
 -0.16706575E-03  0.60231312E-03 -0.19328009E-04 -0.45873987E-03 -0.27211338E-03
  0.47012109E-04 -0.75223641E-04 -0.16805254E-04  0.96278058E-05 -0.67857656E-05
  0.16542874E-04 -0.25647010E-04 -0.81057168E-05  0.66977637E-05 -0.42102936E-06
  0.29585924E-04  0.21482144E-03 -0.18630189E-03 -0.21593401E-04 -0.20854892E-03
 -0.48486072E-03 -0.12546229E-03  0.33912102E-03  0.88172853E-04 -0.22904982E-03
  0.43049976E-05  0.38409900E-04  0.81707274E-05 -0.94035620E-05 -0.10992859E-04
  0.79908032E-05  0.80693976E-06 -0.96517284E-05  0.43470988E-05 -0.78385928E-04
 -0.20326600E-03  0.11092847E-03  0.36030674E-04  0.11875707E-03  0.68654219E-04
  0.72187946E-04  0.58513810E-05 -0.61693615E-04  0.12299164E-04 -0.15044979E-04
  0.40647689E-05  0.66232878E-05 -0.30731360E-05 -0.39258917E-05  0.15654522E-04
 -0.69857447E-05  0.74450379E-06 -0.19757020E-04 -0.17150684E-04  0.14414229E-04
 -0.16506914E-04  0.19337061E-04 -0.16945371E-04  0.43979444E-05  0.94935248E-05
 -0.94041128E-06  0.17956299E-04  0.89430290E-06 -0.14343523E-04 -0.23643480E-04
  0.20232309E-04  0.59392274E-05 -0.56138316E-06 -0.73956493E-07 -0.14431567E-05
  0.59682655E-05 -0.49575882E-04  0.31802802E-05  0.25216927E-04 -0.15011915E-04
  0.57709594E-05 -0.20614277E-04 -0.36518958E-05 -0.58854110E-05  0.29081890E-03
 -0.54688884E-04  0.46187571E-04  0.17055887E-03 -0.12716796E-03 -0.28309450E-04
  0.19111431E-03  0.94658745E-04  0.43679506E-06 -0.16086580E-02  0.83494355E-03
  0.27245420E-03 -0.10178548E-02 -0.18082506E-02 -0.10357925E-02  0.60737597E-02
  0.34942396E-02 -0.24901091E-02  0.32555948E-05 -0.28111204E-04 -0.96073738E-05
  0.33480490E-04  0.45344211E-06 -0.21330480E-04 -0.14577584E-04  0.59290105E-05
 -0.41363987E-05  0.48254187E-03 -0.11993827E-03  0.15578322E-03  0.27146943E-03
 -0.22428438E-04 -0.30446864E-03  0.10179739E-03 -0.95039095E-04 -0.17139765E-03

  0.60042907E-04  0.50391612E-04  0.47007459E-05 -0.39569563E-04  0.12310437E-04
  0.23115460E-04  0.23227906E-04  0.25634599E-04  0.47843188E-04 -0.12708328E-04
  0.38296972E-05  0.44709393E-04 -0.41182840E-04  0.14261445E-04 -0.22539818E-04
 -0.40973082E-05  0.32766498E-05 -0.67498750E-04 -0.76751828E-03 -0.72274699E-03
  0.16037508E-03 -0.13294463E-02  0.80778038E-03 -0.16571969E-04  0.38586046E-03
 -0.10358639E-03 -0.25228991E-03  0.83395501E-04  0.39325189E-04 -0.33757599E-04
  0.36923323E-05  0.17541295E-04  0.21142260E-04  0.22839678E-04 -0.42656329E-04
 -0.29195393E-04  0.72125120E-04  0.55604726E-03  0.92323853E-04  0.10978204E-03
  0.23355031E-03 -0.66422700E-04 -0.23900091E-03  0.46037998E-03  0.13050654E-03
 -0.15720840E-04 -0.55426550E-04  0.36044602E-05  0.24969341E-04  0.43395790E-05
  0.36920694E-05  0.42173993E-05 -0.25868612E-04 -0.31860115E-04  0.95913780E-05
  0.18264450E-04  0.31563088E-05  0.12471685E-04 -0.50178262E-04  0.83446481E-05
 -0.36008548E-04 -0.17742771E-04 -0.29387458E-04 -0.13572349E-04  0.10005331E-05
 -0.78027820E-05 -0.50924799E-05 -0.73754546E-06 -0.49070955E-05 -0.11534764E-04
 -0.22666081E-05 -0.23527407E-04 -0.18508287E-04 -0.55487746E-04  0.20990708E-04
 -0.33562081E-04 -0.46248119E-04  0.14862188E-04  0.35970562E-05  0.17095661E-04
 -0.90754504E-05 -0.18276036E-05 -0.35594739E-04  0.27378525E-05  0.32665220E-04
 -0.12389565E-04 -0.26329011E-04  0.10442460E-06  0.13260791E-04  0.11476414E-04
  0.50010619E-04  0.18136698E-03 -0.63906527E-04  0.12207469E-03 -0.53222308E-04
  0.40243392E-03  0.12087334E-03 -0.25126358E-05 -0.28648869E-04  0.48008575E-05
  0.22160848E-04 -0.34633491E-04 -0.38819550E-04 -0.63256779E-06  0.32379011E-04
  0.27161286E-04  0.21629272E-04 -0.25270470E-07  0.28337788E-03 -0.26431947E-03
 -0.17118962E-03 -0.27800491E-03  0.30898632E-04 -0.42286200E-03 -0.14410785E-03
  0.70545443E-03  0.91454456E-05 -0.13549906E-04  0.45395643E-04  0.43115054E-05
  0.13364646E-04 -0.33157532E-04 -0.26742765E-04  0.56671091E-05  0.12617610E-04
 -0.35503179E-05  0.31051554E-03  0.10933832E-03 -0.31638126E-03 -0.64716544E-03
 -0.82472203E-03 -0.81471005E-04  0.64266050E-03  0.11380324E-03 -0.15560438E-03
  0.22084442E-04  0.17881835E-04 -0.40691601E-04 -0.34535652E-04 -0.10056936E-04
  0.15054110E-04 -0.77775273E-05  0.13905234E-04  0.33478627E-04 -0.21533094E-03
 -0.15379398E-03 -0.24487850E-03  0.72332765E-06  0.19479845E-03  0.20065381E-03
 -0.17696446E-03 -0.18914668E-03 -0.53276278E-03 -0.55030516E-05 -0.22225310E-04
 -0.35270140E-04 -0.17822226E-04  0.22298737E-04  0.82109716E-05  0.12985913E-04
 -0.18584031E-04  0.28007907E-04 -0.25552673E-04 -0.20374824E-04  0.33543695E-04
 -0.65980928E-05  0.15393524E-04 -0.13234661E-05  0.14795741E-05  0.32715447E-05
 -0.19132801E-04  0.25343663E-04  0.13612320E-04 -0.31443519E-04 -0.36809180E-05
  0.12276484E-04 -0.70783645E-05  0.36031041E-05  0.75991130E-05  0.27280084E-04
  0.12341120E-04 -0.16036343E-04  0.11830849E-04  0.28734887E-04  0.15806633E-05
 -0.89647797E-05 -0.17680858E-04 -0.20650722E-04  0.18923698E-04  0.16358351E-03
 -0.17532687E-03  0.13901197E-04  0.16669674E-03 -0.80516891E-04 -0.29908670E-04
  0.27892416E-03 -0.28605245E-04 -0.54466857E-04 -0.18788978E-02  0.30553651E-03
  0.88246906E-03 -0.22798586E-02  0.27552996E-03 -0.88868418E-02  0.34942396E-02
  0.99861014E-02 -0.24129937E-02 -0.59393235E-05 -0.43683997E-04 -0.17190930E-04
  0.39590490E-04 -0.32975186E-04 -0.20431207E-04 -0.18235839E-04  0.20612139E-04
  0.38520280E-04  0.61070559E-03  0.19627587E-03  0.11668859E-03  0.38329391E-03
 -0.94213632E-04  0.13600664E-03  0.10446713E-03 -0.22793919E-05 -0.38983223E-03

  0.12541775E-04 -0.80079691E-04 -0.26142842E-04  0.46015701E-04  0.49937318E-04
 -0.11750501E-03 -0.21913230E-04  0.12326344E-04 -0.40266064E-04 -0.67440412E-05
 -0.30647173E-04 -0.91429575E-05 -0.42033998E-05 -0.15119363E-04 -0.23441439E-04
 -0.10120213E-04 -0.85059126E-05  0.66588059E-04  0.13798216E-03  0.57506556E-03
 -0.41879410E-03  0.84319470E-03 -0.11765642E-03 -0.27513408E-03  0.56913740E-03
 -0.11830698E-03 -0.19023284E-03 -0.47337379E-05 -0.56085277E-04  0.44571987E-04
 -0.83980965E-05 -0.13076271E-04 -0.22107037E-04 -0.39181877E-04  0.14538646E-04
  0.34975168E-05  0.11524775E-03 -0.34158309E-03  0.23239732E-03  0.75569516E-04
  0.92891004E-04 -0.30751849E-03  0.12088859E-03 -0.61871416E-03  0.41209077E-03
  0.22246052E-04  0.84381446E-05  0.39509811E-04 -0.20896273E-04 -0.20624882E-04
 -0.22048288E-04  0.45263475E-05 -0.22816358E-04  0.36573873E-04 -0.12804568E-04
 -0.14128518E-04 -0.17931783E-04 -0.11735284E-04  0.75165026E-05  0.15207369E-04
 -0.28605747E-04 -0.19942821E-04 -0.19795662E-05 -0.18645948E-04  0.44645847E-04
 -0.11852811E-04 -0.20045740E-04  0.21914371E-04 -0.30083203E-04  0.66798501E-05
  0.42657799E-05  0.44511990E-04 -0.13305612E-04  0.33645193E-04 -0.22049353E-04
  0.23552299E-04  0.56277395E-04 -0.67144410E-05 -0.69135735E-05  0.34393286E-05
 -0.24308839E-04 -0.54585832E-05  0.19677542E-04 -0.35058906E-05  0.12512250E-05
 -0.24977268E-04  0.14236433E-04  0.21144240E-05 -0.17569631E-04 -0.13969297E-04
  0.22410730E-03  0.19265913E-03  0.24312185E-03  0.83761549E-04 -0.45014760E-04
 -0.43348316E-03  0.13592243E-03 -0.14416336E-03  0.79066706E-04 -0.10537186E-04
 -0.64079489E-04  0.16731003E-04  0.25751706E-04  0.25148707E-04 -0.54394935E-04
 -0.13072461E-04 -0.47744923E-05  0.14615797E-05  0.13243389E-03  0.28305189E-03
 -0.48894577E-04 -0.76997704E-04  0.42218192E-03 -0.37142945E-03  0.43538929E-04
 -0.19176832E-03 -0.36192031E-03  0.11796467E-04 -0.98791434E-05  0.29441134E-04
  0.82335344E-05 -0.21182574E-04  0.28072159E-04  0.16085681E-04  0.26539415E-04
  0.97074959E-05 -0.78662356E-04  0.16296696E-03 -0.49492697E-03  0.34347441E-04
 -0.16289793E-03  0.40221241E-05 -0.26264029E-03 -0.33501305E-03  0.31688995E-03
 -0.86734510E-05 -0.83348728E-04 -0.70413273E-05 -0.29036859E-04  0.12299941E-04
 -0.12896399E-05  0.19916998E-04  0.15861803E-06  0.10792818E-04 -0.11708756E-03
  0.18310401E-03 -0.12253971E-05 -0.65011037E-04  0.35729164E-03 -0.13216236E-03
 -0.91069577E-04  0.20973469E-03 -0.11866305E-03  0.33221681E-04  0.41096828E-04
  0.53525412E-04  0.35887475E-05 -0.69061980E-04 -0.17686271E-04 -0.13992849E-04
 -0.21314378E-05 -0.80272011E-05  0.17713714E-04  0.26002675E-04 -0.15654054E-04
 -0.22701299E-04 -0.10839326E-04  0.11938211E-04  0.22973845E-04 -0.25484447E-04
  0.27331257E-04 -0.24773137E-04  0.54861494E-05  0.20981541E-04  0.77358038E-05
 -0.26438550E-04  0.14734086E-04  0.69879390E-05  0.11069565E-04  0.15396656E-06
  0.37994991E-06  0.71938167E-04  0.35422106E-04 -0.26322805E-04  0.80011396E-05
 -0.15947490E-04 -0.16764009E-04 -0.12604872E-05 -0.18476375E-04 -0.13005436E-03
 -0.17254806E-03  0.20791563E-03  0.81528720E-04  0.31348642E-05  0.20945183E-03
 -0.70633306E-04  0.59321348E-04  0.11551935E-03  0.80309360E-03 -0.10425397E-02
 -0.26361731E-02 -0.11808134E-02  0.20646049E-02  0.10576293E-01 -0.24901091E-02
 -0.24129937E-02  0.13544186E-01 -0.31276126E-05 -0.34906016E-06  0.37858881E-04
 -0.16035759E-04 -0.82208624E-05  0.28711413E-04  0.19002525E-04  0.34172100E-04
  0.57646971E-04 -0.13647402E-03  0.24175918E-03  0.18034573E-03 -0.38011165E-05
 -0.34855346E-03  0.17615758E-04  0.76353147E-04 -0.30878623E-03  0.25531561E-03

 -0.46594024E-06 -0.18121443E-05 -0.69351550E-06 -0.12217024E-05  0.31028975E-05
  0.14762154E-05 -0.10158851E-05 -0.13959440E-05  0.43581442E-06  0.13652777E-05
 -0.13069217E-05 -0.37737130E-06  0.16874994E-05 -0.46438119E-06  0.51537700E-06
 -0.64944607E-06  0.95607291E-06 -0.17135005E-06  0.19966791E-04 -0.12608501E-04
  0.59664140E-05  0.98453925E-04 -0.12948667E-04 -0.15374811E-04  0.49327547E-04
  0.30355310E-04  0.13923807E-04 -0.31192899E-07  0.14727153E-05 -0.14020527E-05
  0.50303510E-06  0.15761852E-05  0.57444471E-06  0.79331888E-06 -0.24360535E-06
 -0.49112070E-07 -0.28314767E-05  0.82265093E-05  0.33179669E-06  0.20649957E-04
 -0.75663901E-05  0.17851956E-04  0.12716765E-05  0.19503918E-04  0.10843918E-04
 -0.72441843E-06 -0.24644458E-05  0.10670933E-05 -0.20290944E-05 -0.12834466E-05
  0.42906196E-07  0.42312344E-06 -0.20332235E-05  0.24234726E-06  0.30985810E-06
  0.19470968E-05 -0.26028617E-06 -0.13762825E-05  0.28473855E-05  0.34057217E-06
  0.11607627E-05  0.49488329E-06  0.30866886E-06  0.60678105E-08  0.25623042E-05
  0.72502450E-06 -0.31917493E-05  0.10171261E-05  0.14375652E-05  0.29497161E-06
  0.56348914E-08  0.45527311E-06 -0.11427339E-06 -0.17391132E-05 -0.81074355E-06
  0.14262328E-05  0.44518774E-06 -0.73090501E-06 -0.46936445E-07  0.82715232E-06
 -0.90772865E-06  0.58117450E-06  0.41777400E-06  0.10349313E-05  0.28545996E-05
  0.26245441E-07 -0.91918439E-06  0.25839319E-06  0.13187369E-05 -0.22211083E-06
 -0.13338314E-04 -0.89484247E-06  0.20856240E-04  0.12472843E-04 -0.12961516E-04
 -0.14335020E-04 -0.84953089E-05 -0.87927159E-06 -0.30250585E-05 -0.14280370E-05
 -0.25742968E-05  0.93895808E-06 -0.26731606E-05  0.60028011E-06 -0.20515681E-06
 -0.13403534E-06 -0.15443729E-05  0.16606976E-05 -0.54162355E-05 -0.16749993E-04
 -0.15521815E-04  0.39280863E-06  0.11735356E-04 -0.37638843E-04  0.10560068E-04
 -0.68814504E-05 -0.20106395E-04  0.14046186E-05 -0.13288245E-05 -0.10836409E-05
 -0.47442497E-06 -0.37657104E-06  0.50208073E-06 -0.43806237E-07  0.10084820E-05
 -0.48412047E-06 -0.17897633E-04  0.27929276E-04 -0.93171291E-05  0.34152781E-04
 -0.30976741E-04 -0.81815275E-05 -0.12435361E-04 -0.19817019E-05  0.48819789E-05
 -0.80599704E-06 -0.32851527E-06 -0.42198963E-06 -0.13994704E-05 -0.12476353E-05
  0.19570269E-05 -0.18437199E-06 -0.56353451E-06  0.42917819E-06 -0.12109583E-04
 -0.31813266E-06  0.13326631E-04  0.14228908E-04 -0.73544205E-06  0.76963415E-06
 -0.66218143E-05 -0.21046220E-05 -0.57905874E-05 -0.51758927E-06  0.20198282E-06
  0.85853228E-06  0.29745391E-06  0.67652442E-06 -0.37899204E-06  0.47336520E-06
 -0.34796176E-06  0.38998186E-07 -0.22959006E-06  0.18823463E-06  0.71928586E-06
  0.22210566E-06  0.12238066E-06  0.71786006E-06  0.73811984E-06  0.66672545E-06
  0.14865398E-05  0.26964169E-07 -0.12465180E-05 -0.98957876E-06 -0.39428199E-06
  0.99305026E-06 -0.16045726E-06 -0.57595913E-06 -0.67836824E-07  0.13407348E-06
  0.16707900E-05  0.99046036E-06 -0.20641989E-05 -0.14107629E-05 -0.17378038E-05
  0.21753720E-05  0.10817862E-05 -0.43919830E-06 -0.66467884E-06  0.14382638E-05
  0.48776845E-05 -0.79767013E-06  0.37773886E-05 -0.46775309E-05 -0.46222088E-06
 -0.12099070E-05  0.12305825E-05  0.54913639E-05 -0.68027269E-08  0.36821406E-04
 -0.10734497E-04 -0.58756709E-05 -0.15480455E-04  0.22886071E-04  0.32555948E-05
 -0.59393235E-05 -0.31276126E-05  0.15992920E-04  0.18325249E-05  0.18071362E-05
  0.15021217E-05 -0.33061826E-06 -0.25979678E-07  0.12517989E-05 -0.33375792E-06
 -0.17648081E-05  0.13869915E-04  0.20919154E-04  0.10742237E-04 -0.27030219E-04
  0.14093930E-04  0.21236773E-05 -0.88549055E-05  0.25023847E-05  0.27433843E-04

  0.13683046E-05 -0.23177607E-05  0.96549892E-06 -0.10507068E-05  0.29087494E-06
  0.87398626E-06  0.11812888E-05 -0.11492028E-05  0.12278206E-05 -0.57347497E-06
  0.81565774E-06  0.22622928E-05  0.11774262E-05 -0.40875734E-05  0.15150689E-05
 -0.14892014E-05 -0.13531832E-05  0.80149966E-06  0.31614412E-04 -0.51163307E-05
 -0.13367323E-04  0.38218624E-06 -0.57176336E-04  0.12787685E-04  0.46864396E-05
 -0.55934375E-05  0.61437680E-05 -0.51708350E-06 -0.26205179E-05 -0.29500899E-05
  0.39769125E-06 -0.50487909E-06  0.81658605E-06  0.57717449E-06  0.63975388E-06
 -0.14830732E-06 -0.79820845E-05 -0.32501206E-05 -0.68964500E-05  0.37875928E-05
 -0.15182195E-05  0.29038671E-05 -0.88489452E-05  0.17274656E-04  0.43687815E-05
 -0.69736321E-06  0.14470591E-05 -0.14525170E-06 -0.57887751E-07 -0.28478264E-06
 -0.70449001E-06 -0.84840009E-06 -0.40626296E-06  0.12875547E-05  0.99909981E-06
 -0.41478551E-06 -0.81274847E-06 -0.11745150E-07  0.27476777E-05 -0.77798259E-06
  0.90297831E-06  0.81938315E-07  0.39322424E-06  0.64319684E-06  0.10177263E-05
  0.17703961E-05 -0.77761564E-06  0.19269839E-05 -0.90546068E-06 -0.56738636E-06
 -0.42358357E-06 -0.74120875E-06 -0.26249219E-06  0.39746158E-06  0.51361125E-07
  0.75389888E-06 -0.31338290E-05  0.67255822E-06 -0.29572834E-06  0.27697432E-06
 -0.10375984E-06 -0.58626204E-06 -0.26284512E-05  0.74057156E-06 -0.85696544E-06
  0.23152372E-05  0.99520434E-07  0.83029646E-06  0.26760341E-06  0.39238565E-08
 -0.98693689E-05  0.31727790E-04  0.69236721E-05 -0.95920009E-05  0.10148036E-04
  0.11803667E-04 -0.48300060E-05  0.40925106E-05 -0.60295942E-06 -0.34301315E-06
 -0.12528242E-05 -0.90404412E-06 -0.70993601E-07 -0.18771988E-05  0.50728648E-06
 -0.20355862E-05 -0.10897386E-06 -0.23402624E-06  0.14601074E-04 -0.18321366E-04
 -0.27542436E-04 -0.83304467E-05  0.46083349E-05  0.30308370E-04 -0.25817750E-04
 -0.12347948E-04 -0.26191652E-04 -0.60302044E-06 -0.11147345E-05  0.72755077E-06
 -0.55160394E-06  0.22871940E-06 -0.43668456E-06  0.11954372E-07 -0.88265616E-06
 -0.22045729E-05  0.23100506E-04 -0.25958158E-04 -0.27932092E-04  0.14177095E-04
 -0.42211303E-04  0.71580525E-05  0.22637641E-05 -0.17342162E-04  0.12124027E-05
 -0.63086050E-06 -0.70023099E-06  0.33694882E-07  0.72248540E-07 -0.43206532E-06
  0.95055078E-06 -0.10747033E-05  0.28249994E-06  0.14212607E-05 -0.91735231E-06
 -0.98497416E-05 -0.99571363E-05 -0.41484754E-07  0.83735361E-05 -0.59293920E-05
 -0.58416109E-05 -0.94458401E-06  0.77818074E-05  0.97667379E-06 -0.12332406E-05
  0.61229456E-06 -0.26714660E-06  0.16285199E-05 -0.17846956E-05  0.15228134E-05
  0.33779454E-06 -0.88196013E-06  0.36884215E-06 -0.19737630E-05 -0.92108068E-06
 -0.30752274E-06  0.88627301E-06 -0.19772714E-06  0.16499506E-06  0.12166100E-05
 -0.30379087E-07 -0.58123484E-06 -0.14289693E-05 -0.12937584E-05  0.19634842E-06
 -0.12570718E-05  0.70368145E-06 -0.60009276E-06 -0.15257185E-06 -0.93844854E-06
  0.10612767E-05  0.41432932E-05 -0.14687973E-05  0.32715121E-07  0.24803727E-05
 -0.10590964E-05 -0.72851352E-06 -0.93468220E-07  0.13011525E-06  0.31449420E-05
  0.38396763E-05 -0.17337847E-05 -0.13671437E-05 -0.16393903E-05 -0.17268123E-05
 -0.53433460E-05  0.36763315E-05  0.35906940E-05  0.51007882E-06  0.13736262E-04
 -0.73457974E-05  0.10808739E-04 -0.79840388E-05  0.35301889E-04 -0.28111204E-04
 -0.43683997E-04 -0.34906016E-06  0.18325249E-05  0.23892323E-04  0.99093292E-06
  0.10506383E-05 -0.32966492E-05  0.29170547E-06  0.74458305E-06 -0.11409824E-05
 -0.41406706E-05  0.18446937E-04  0.22077933E-04  0.32177499E-04 -0.14098255E-03
  0.22337827E-04  0.61898577E-04  0.64621881E-05  0.28850379E-04  0.77358977E-04

 -0.32797773E-06 -0.16046229E-05  0.16097567E-07 -0.18344799E-05  0.12156791E-05
  0.13280562E-05  0.52031213E-07  0.67855292E-06 -0.55694192E-06 -0.40466503E-06
  0.38437773E-07  0.46081624E-06  0.13635603E-05 -0.29683253E-05  0.15230835E-05
 -0.58099299E-06  0.14024410E-05 -0.34413123E-06  0.15991159E-04 -0.67916889E-05
  0.41508348E-05  0.46048047E-04 -0.28368890E-04  0.42010494E-04  0.17840151E-04
  0.18230038E-04  0.12858121E-04 -0.29073069E-06 -0.25295697E-05  0.33253370E-06
  0.10216800E-05  0.97346747E-06 -0.31419267E-05  0.68383132E-06  0.59185764E-06
  0.14663551E-05 -0.26850737E-05  0.42828872E-06 -0.45442574E-05  0.22091088E-04
 -0.22588748E-04 -0.53099052E-05  0.12362087E-04  0.18196713E-04  0.42254482E-05
  0.25374394E-06 -0.15188577E-05 -0.56343233E-06 -0.95139687E-06 -0.14551737E-05
 -0.20741498E-05 -0.57991297E-06 -0.16409520E-05 -0.11786442E-05 -0.82983498E-06
  0.21874000E-05 -0.76876193E-06 -0.36348131E-06  0.74236837E-06  0.91266909E-06
  0.45340331E-06 -0.50502855E-06 -0.34356693E-06  0.97939280E-06  0.59285269E-06
 -0.84036070E-06 -0.73821698E-06  0.12506613E-05  0.33278576E-06  0.24688553E-06
  0.82229179E-06  0.13760234E-06 -0.97899418E-06  0.31493808E-06  0.96676275E-06
  0.43768440E-06  0.58955696E-06  0.10726600E-05 -0.44679331E-06  0.23927522E-07
  0.18848380E-06 -0.11772949E-06  0.24685026E-06 -0.10353020E-05 -0.51857984E-06
 -0.11980882E-05  0.30864516E-05 -0.27016097E-06 -0.33051284E-06  0.25359025E-06
  0.12444196E-04  0.24166270E-04 -0.11869329E-04  0.13884546E-04  0.23701088E-05
 -0.39633188E-04 -0.10168182E-05  0.66159794E-05 -0.21417155E-04  0.20177938E-05
 -0.44346343E-06 -0.18351677E-05  0.58511843E-06  0.40428506E-06 -0.41970805E-05
  0.17169665E-06 -0.29805751E-06  0.25964636E-06  0.78058665E-06  0.18658467E-05
  0.24364035E-05 -0.17520887E-04  0.15787532E-04 -0.36793175E-05 -0.83667430E-05
 -0.40257073E-04 -0.18445454E-04  0.38754191E-06  0.17734881E-06  0.10617111E-05
  0.10239846E-06 -0.67232734E-07  0.23732474E-05  0.64830820E-07 -0.30163565E-06
 -0.17711896E-05 -0.54635436E-05  0.22145166E-04 -0.38951233E-05  0.12137116E-04
 -0.76974508E-05 -0.25101958E-05 -0.52004823E-06 -0.11049626E-04  0.15631740E-04
 -0.29147413E-06 -0.39580456E-06 -0.23029140E-05  0.62020110E-06 -0.43570602E-06
  0.90669359E-06  0.35875400E-06 -0.40290896E-06  0.11538663E-05  0.58088666E-05
  0.17529695E-05  0.93865858E-05 -0.89003417E-05 -0.27773491E-05  0.33091935E-04
 -0.10040829E-04 -0.35718652E-05 -0.82921070E-05  0.43816161E-06  0.97665064E-06
  0.48054108E-06 -0.83934126E-06  0.35160654E-06  0.82793730E-06 -0.68213055E-07
 -0.21461972E-06  0.59817360E-06 -0.21904072E-07  0.30220758E-06 -0.11107949E-05
 -0.45528734E-06  0.82547871E-06  0.19432785E-05  0.96883007E-06  0.18097438E-07
  0.51592029E-06 -0.76648112E-06 -0.63119997E-06  0.24279661E-06  0.10647588E-05
 -0.97650234E-06 -0.51441641E-06  0.47440114E-06 -0.65124929E-06 -0.90548135E-06
 -0.14825791E-05  0.78975725E-06  0.14850687E-05  0.42771943E-06 -0.37182872E-06
 -0.12249456E-05 -0.90452988E-07  0.96569047E-06 -0.28622308E-06 -0.17109866E-05
 -0.25332686E-05 -0.59289481E-06 -0.67302336E-06  0.30126577E-05 -0.19464997E-06
  0.50967756E-05 -0.47579338E-07 -0.14337298E-05 -0.22905937E-04  0.82962864E-05
  0.28020420E-04 -0.28817777E-05  0.25921007E-04 -0.39720265E-04 -0.96073738E-05
 -0.17190930E-04  0.37858881E-04  0.18071362E-05  0.99093292E-06  0.21431094E-04
  0.20039486E-05 -0.11271314E-05  0.42000558E-06 -0.10653992E-05  0.83892664E-06
  0.11069380E-05  0.13499494E-04  0.31977201E-04 -0.59330829E-06 -0.83967913E-04
  0.35122751E-04  0.13125377E-04  0.16832531E-04  0.23752313E-04  0.28872108E-04

 -0.18270166E-06 -0.29416623E-06 -0.75548168E-06 -0.76650502E-06  0.13421773E-05
  0.10401548E-05 -0.75422278E-06  0.84926491E-06  0.92998051E-06  0.15799945E-05
  0.15529604E-05  0.27694705E-05 -0.82966304E-06  0.13277069E-05 -0.38742484E-06
 -0.14780663E-06  0.72585572E-06 -0.40787476E-06 -0.79575821E-05 -0.49273804E-05
  0.11075779E-04  0.81570858E-05 -0.10514799E-04  0.75413310E-05 -0.71143178E-05
  0.87515781E-05 -0.17328682E-04 -0.10137448E-05  0.68159840E-06 -0.57427620E-06
  0.21873953E-05 -0.60740664E-06  0.10217595E-05  0.49365531E-06 -0.50929535E-06
 -0.27350225E-06 -0.17526310E-04  0.47672769E-05 -0.78923605E-05  0.17909175E-04
 -0.28519864E-04 -0.37777257E-05 -0.13319607E-04  0.98317304E-05 -0.21194506E-04
  0.81539243E-06 -0.73228445E-06  0.86320524E-06 -0.28524651E-05  0.25047029E-05
 -0.15104486E-06  0.88725617E-07 -0.10994120E-05 -0.17334857E-06  0.14549095E-05
 -0.71818274E-06  0.79452242E-06 -0.10432368E-05  0.28253438E-05  0.59295974E-06
  0.20404807E-05  0.13572212E-05  0.58496003E-06  0.42017995E-06  0.68350250E-06
  0.95128496E-06 -0.55375176E-05  0.22212052E-05  0.29962159E-05  0.23444213E-06
 -0.18294539E-05  0.34998767E-08  0.45743251E-06  0.10261543E-08  0.65685477E-06
  0.12192948E-05 -0.26751530E-05  0.93234364E-06 -0.62450375E-06 -0.85843979E-07
  0.24818059E-06  0.10488610E-05  0.49232131E-06 -0.58974215E-06 -0.71666573E-06
  0.11292613E-05 -0.68012018E-06  0.90571250E-06  0.79773214E-06  0.70130065E-06
  0.17479829E-05  0.10864958E-04 -0.14171306E-04  0.10527916E-04  0.83857410E-05
  0.55330414E-05  0.97536126E-05  0.48322306E-05  0.18463712E-05  0.26680828E-06
 -0.69435951E-06 -0.99550515E-06 -0.25392012E-05  0.13300381E-05  0.12345206E-05
 -0.73133958E-06  0.64379769E-06 -0.33117049E-06 -0.12698488E-05 -0.23348482E-04
 -0.14105838E-04 -0.76831398E-04  0.22542486E-04  0.15637407E-04 -0.23021199E-06
  0.84029733E-05 -0.28185199E-05 -0.79367144E-06  0.57822968E-06 -0.66181031E-06
  0.29133200E-05 -0.11608809E-05  0.21936006E-06  0.43941618E-06  0.18527660E-06
 -0.86532072E-06  0.13978742E-04  0.54363618E-05 -0.84315936E-05  0.39427388E-04
 -0.46037208E-04 -0.24951372E-04  0.14424977E-04  0.52743190E-05  0.11008120E-05
  0.17904649E-05  0.68161763E-06  0.60761444E-06 -0.12988330E-05 -0.10116260E-05
  0.18521726E-05  0.29674906E-06  0.46087947E-06 -0.44108269E-06  0.94473823E-06
  0.35682691E-05 -0.10623509E-04  0.40627183E-04 -0.15763138E-04 -0.16671658E-04
 -0.30752839E-05  0.64851738E-05 -0.71804395E-05 -0.43521778E-06 -0.13123918E-05
 -0.91126134E-06  0.15084001E-05  0.47451764E-06  0.53287855E-06  0.80819364E-06
  0.71736539E-06 -0.64133497E-06  0.58500065E-06 -0.25527322E-05  0.15616086E-05
 -0.26864397E-05  0.16683680E-05  0.32943526E-06 -0.33111863E-07 -0.47278986E-06
  0.48409721E-06 -0.31483937E-06 -0.15445335E-06 -0.11053358E-06 -0.58383309E-06
  0.14734948E-05  0.63247554E-06  0.25828553E-06 -0.14655111E-05  0.10631360E-05
  0.20992330E-05 -0.59892223E-06  0.66753355E-06  0.14232496E-05 -0.27150521E-06
 -0.10232972E-06 -0.34462783E-06 -0.12218696E-06 -0.84448258E-06 -0.29613804E-05
 -0.13603440E-05  0.10192369E-05  0.10489559E-06  0.20446753E-05 -0.21217060E-05
  0.47351889E-05 -0.30187402E-05 -0.10038309E-05 -0.17671018E-05 -0.11531908E-04
  0.19067863E-04 -0.59370980E-04  0.48879827E-04 -0.48470891E-04  0.33480490E-04
  0.39590490E-04 -0.16035759E-04  0.15021217E-05  0.10506383E-05  0.20039486E-05
  0.28174743E-04 -0.12235735E-04 -0.85099406E-05 -0.50272365E-06  0.28520372E-05
  0.34416801E-06  0.25213169E-04  0.31951550E-04  0.44995373E-04  0.12833837E-04
  0.83238476E-05 -0.45995262E-05  0.26023956E-04  0.11694629E-04  0.29394125E-04

  0.98567182E-07  0.24781538E-05 -0.34252550E-06  0.11993616E-05 -0.36676568E-05
  0.15659696E-05  0.71737769E-07 -0.79788151E-06 -0.12387995E-05 -0.90655406E-06
 -0.64483147E-06 -0.29012632E-05  0.19529698E-05 -0.61410218E-05  0.16381628E-05
  0.25621379E-06 -0.55347026E-06 -0.11141445E-05 -0.12886461E-04 -0.14736916E-04
 -0.40474003E-05  0.52783852E-04 -0.48649467E-04 -0.86846113E-05 -0.66365772E-04
  0.17826432E-05  0.12296524E-04  0.54628114E-06  0.95572768E-07  0.92992838E-06
 -0.22927508E-05  0.34126063E-05  0.14739527E-05  0.25829744E-05  0.15179909E-06
  0.44059314E-06  0.68177695E-05 -0.21399001E-05 -0.11581355E-04  0.85163496E-05
 -0.21155107E-04 -0.59777925E-05 -0.49513870E-05  0.24186080E-05  0.15056584E-04
  0.10475379E-05 -0.13900469E-05 -0.68459274E-06  0.34171734E-05 -0.36509923E-05
  0.11473089E-05 -0.19419124E-05  0.14148615E-05 -0.55365216E-06  0.24184762E-06
 -0.14636462E-05 -0.57352682E-06  0.25713173E-05 -0.65479496E-05  0.19359807E-05
 -0.59684629E-06  0.27767611E-06 -0.45285777E-06  0.10076355E-05 -0.12201269E-05
 -0.92680842E-06  0.29835851E-05 -0.17454667E-06  0.18440365E-05  0.23089817E-05
  0.50681396E-06  0.99775234E-06 -0.41637321E-06  0.12952927E-05 -0.10035914E-05
 -0.45931206E-06  0.23746820E-05 -0.74895311E-06  0.43833701E-06  0.30749772E-06
 -0.34349023E-06  0.81098305E-06  0.28448064E-05  0.65726773E-06  0.16074436E-05
 -0.22675216E-05  0.50248345E-06 -0.91127051E-06 -0.49751757E-06 -0.84316005E-06
  0.20167910E-05  0.82998014E-07 -0.15623296E-04  0.16052277E-04 -0.52405589E-04
 -0.33694775E-04  0.45045556E-05  0.32122409E-05 -0.88513489E-05  0.23518724E-05
  0.15002486E-05 -0.73974996E-06  0.20384953E-05 -0.51684809E-06 -0.13512756E-05
  0.21790966E-05 -0.24320520E-05  0.35473183E-06 -0.39366301E-04  0.21493150E-05
  0.59939127E-05  0.55395065E-04 -0.13519169E-04  0.18176844E-05 -0.34737778E-04
 -0.26132838E-04  0.72997058E-05  0.41212526E-06 -0.56321560E-05  0.74708126E-06
 -0.14570267E-05  0.57220519E-05 -0.66136472E-06  0.12426756E-05  0.38295672E-06
  0.37818603E-05 -0.27800668E-04 -0.58137019E-05  0.42266204E-04  0.31542574E-04
  0.27724350E-04  0.13508647E-04 -0.49092629E-04  0.96993036E-05  0.44882920E-05
 -0.15919795E-05 -0.13665633E-06 -0.71189779E-06  0.65808033E-06 -0.12394554E-05
  0.70091576E-06  0.14690713E-05 -0.20177770E-05 -0.41990240E-06 -0.21394556E-05
 -0.85421866E-05  0.17549600E-04 -0.16234100E-04  0.38695958E-04  0.68926450E-05
  0.48345992E-05 -0.45938736E-05 -0.73656726E-05 -0.24817607E-06  0.18172419E-05
  0.58377786E-07  0.30995196E-06 -0.36302972E-05  0.28294635E-05  0.20287980E-06
  0.74967003E-07 -0.52708942E-06 -0.70248873E-06  0.33894217E-05 -0.51828098E-06
  0.19595031E-05 -0.92293540E-06 -0.56814247E-06 -0.48411601E-07  0.96193275E-06
 -0.17447431E-05  0.72258023E-06 -0.91542164E-07  0.81202188E-06  0.12796049E-05
 -0.33983044E-05  0.29562727E-06  0.58779564E-06 -0.52066809E-07 -0.15549922E-06
 -0.40130359E-06 -0.26059690E-05  0.52419477E-07  0.28698069E-06  0.68698670E-05
 -0.11527633E-06  0.11511962E-05  0.75849151E-06 -0.92512007E-06  0.32648404E-05
  0.40803321E-05 -0.10193941E-05 -0.78094978E-06  0.33105122E-05 -0.21961950E-06
 -0.12852998E-05  0.50217872E-05  0.62237480E-05  0.17634530E-04  0.36371231E-04
 -0.20359864E-04  0.40514751E-04 -0.39990457E-04  0.14834520E-03  0.45344211E-06
 -0.32975186E-04 -0.82208624E-05 -0.33061826E-06 -0.32966492E-05 -0.11271314E-05
 -0.12235735E-04  0.42692478E-04 -0.64905932E-05  0.23977967E-05 -0.12646471E-05
  0.10874648E-05 -0.32028980E-04 -0.35117555E-04 -0.60138496E-04  0.11685868E-03
  0.18658976E-04 -0.93032961E-04 -0.28182147E-04 -0.23726944E-04 -0.67261150E-04

 -0.92601608E-06 -0.14410673E-05 -0.11692436E-06  0.21860994E-05  0.69014502E-06
 -0.26823328E-05  0.97049778E-06  0.26327789E-06 -0.15914804E-05 -0.23318250E-06
  0.62760657E-06 -0.11746897E-05  0.79190439E-06  0.14454527E-05 -0.85235519E-06
 -0.92477863E-06 -0.80349975E-06  0.15061333E-05  0.44210665E-04  0.24590171E-04
 -0.37766936E-05  0.27116842E-04  0.38870170E-05  0.13390819E-04  0.17234037E-04
  0.64845749E-05  0.23574664E-04  0.69102587E-06 -0.76551884E-06 -0.77656778E-06
  0.18077410E-05 -0.32749910E-06 -0.52844437E-05 -0.14793830E-05 -0.24461955E-05
 -0.22117224E-05  0.16599698E-04  0.88113052E-05  0.20849042E-04  0.16010898E-04
  0.11881569E-04  0.12115457E-04  0.17484930E-04  0.15384590E-04  0.37378112E-04
 -0.16431022E-05  0.16110555E-05 -0.34065583E-07 -0.37176126E-06 -0.31423985E-06
  0.65682531E-06  0.57445156E-06 -0.22260161E-05  0.89069483E-06 -0.10543916E-05
  0.14398759E-05 -0.85557480E-06  0.16522162E-05  0.23343391E-05 -0.39127161E-05
 -0.54735174E-06 -0.13048545E-05 -0.31436451E-06 -0.13303933E-05  0.17669167E-05
 -0.13391790E-05  0.31711109E-05  0.29733821E-05 -0.61779856E-05 -0.85163300E-06
  0.22558196E-06 -0.16087336E-06 -0.69501671E-06 -0.14994931E-06  0.65445711E-06
  0.65692691E-06  0.68651687E-06  0.18784983E-05  0.32229801E-06  0.36990012E-06
 -0.52571404E-06 -0.23389874E-05 -0.29370319E-06 -0.42431366E-05 -0.11194577E-05
 -0.48594541E-06  0.52321779E-05 -0.14761685E-06  0.24944836E-06  0.96966984E-06
  0.14170328E-04  0.60444716E-05  0.21841174E-04 -0.14834554E-04  0.23487855E-04
  0.32061369E-04 -0.19169616E-04  0.17782835E-04 -0.40766295E-05 -0.74854358E-06
 -0.16719034E-05  0.19431672E-05  0.74711542E-06  0.23492027E-05 -0.15986922E-05
 -0.38297321E-06  0.69415524E-06 -0.10351715E-05  0.30991710E-04  0.56839360E-05
 -0.25637887E-04  0.35449726E-04  0.59699943E-05 -0.28333113E-04  0.39380380E-05
 -0.14253704E-04 -0.92844004E-05 -0.60612004E-06 -0.22637889E-06  0.43322078E-07
 -0.61598398E-06  0.10605829E-05  0.26451352E-06  0.23950743E-06  0.32078286E-06
 -0.35486075E-06 -0.10273017E-05 -0.11195822E-04 -0.66962255E-05 -0.68623338E-05
  0.17464344E-06  0.35471206E-04 -0.50656965E-05 -0.51018429E-05 -0.41036806E-05
 -0.74922851E-06  0.41110369E-06  0.12440849E-05  0.64996596E-06  0.15395556E-05
 -0.51015010E-07 -0.66700283E-06  0.56299762E-06 -0.15191582E-06 -0.33891284E-05
 -0.90103158E-05  0.23167211E-04 -0.69142681E-05  0.76972792E-05 -0.16061625E-04
 -0.64337638E-05  0.35994955E-05  0.14988917E-04 -0.27387332E-06  0.12208285E-05
  0.85439433E-06  0.50162887E-06  0.39304384E-06 -0.74964999E-07 -0.53113332E-06
  0.25586741E-06  0.89711499E-06 -0.15914767E-06  0.20549230E-06  0.20851536E-06
  0.44814254E-06  0.41869851E-06  0.31333335E-05 -0.73729079E-06  0.20141911E-07
 -0.62610357E-06 -0.74013727E-07 -0.41188517E-06 -0.34746397E-07  0.70848824E-06
  0.50556153E-06 -0.37278261E-06 -0.35432382E-06  0.10617158E-05  0.49660460E-06
  0.81509957E-07  0.28068771E-05 -0.37899435E-06 -0.16832270E-06  0.79670499E-07
  0.88713953E-06  0.21011426E-06 -0.36711832E-06  0.18491836E-05  0.36466221E-06
 -0.79499190E-06  0.56796364E-06 -0.83464402E-06 -0.17864889E-05  0.38394798E-05
 -0.34575288E-05 -0.16831951E-05  0.31479050E-07  0.83268743E-05 -0.15468675E-05
 -0.97188966E-05  0.25632142E-05 -0.24020736E-04  0.10345904E-03 -0.21330480E-04
 -0.20431207E-04  0.28711413E-04 -0.25979678E-07  0.29170547E-06  0.42000558E-06
 -0.85099406E-05 -0.64905932E-05  0.28414821E-04  0.14258838E-06  0.20861081E-05
  0.18175591E-05 -0.82619127E-05 -0.24660144E-04 -0.38882287E-05  0.29153883E-05
 -0.43149566E-04  0.74105939E-04 -0.96024164E-05  0.13109073E-04 -0.99974102E-05

 -0.36983728E-06 -0.13244769E-05  0.51773716E-06 -0.47504118E-07  0.31460950E-05
 -0.67750703E-06  0.10098181E-05 -0.38914089E-06 -0.15677122E-06 -0.11188603E-05
  0.11350834E-05  0.10251461E-06  0.17905264E-06 -0.12899978E-06 -0.95439448E-06
 -0.11728630E-05  0.13874343E-06  0.20492843E-05  0.35695888E-04  0.20179262E-04
  0.11968750E-05  0.55058311E-04 -0.30568386E-04 -0.91443555E-05 -0.26571634E-04
 -0.15151708E-04 -0.23033821E-05  0.51625801E-06  0.11131494E-05  0.12721834E-06
 -0.13571820E-05  0.40552301E-06  0.18777272E-05 -0.17109106E-05 -0.10939260E-05
 -0.15347397E-05 -0.14223929E-05 -0.30039232E-06 -0.12519471E-04  0.47918764E-05
 -0.44854317E-05  0.94799833E-05  0.16368333E-04  0.35757850E-05  0.25179123E-04
 -0.56321379E-06  0.31528836E-05  0.28603869E-06  0.18514413E-06 -0.29974447E-05
  0.78444779E-06 -0.95376548E-06  0.80271763E-06  0.10154827E-05 -0.79041575E-06
 -0.19257598E-05  0.14299942E-05  0.21149427E-05 -0.70217957E-06 -0.28239094E-07
  0.69530388E-06  0.36770354E-06 -0.21989476E-06 -0.93006794E-06  0.20224848E-05
 -0.16594658E-06 -0.20792351E-06  0.34128757E-05  0.44726218E-07  0.31953484E-06
  0.11167639E-05  0.48078274E-06 -0.86382598E-06 -0.75229163E-06 -0.34936264E-06
 -0.23317260E-07 -0.27042347E-06 -0.95947008E-06 -0.60357406E-06 -0.19797545E-06
 -0.12122618E-05 -0.54729560E-06 -0.10438249E-05 -0.10287081E-06 -0.11985049E-05
  0.82011748E-06  0.53668717E-06 -0.81204987E-06  0.17890762E-06  0.52444223E-06
  0.60202858E-05 -0.67553167E-05 -0.57537182E-06  0.19354498E-05 -0.14430937E-04
 -0.10197738E-04 -0.46899898E-05 -0.12241542E-05  0.66556401E-05 -0.52737556E-06
  0.35881600E-05  0.14296538E-05  0.17227720E-05  0.16370174E-05 -0.87233377E-06
 -0.10660290E-05 -0.17852355E-06 -0.75426333E-06  0.86061126E-05  0.16048627E-04
  0.11390594E-04 -0.21192021E-04  0.62276259E-05  0.25039957E-04  0.12179711E-04
  0.11728925E-04  0.81613579E-05  0.14059182E-05 -0.10500426E-05  0.37427952E-07
  0.91442279E-06 -0.15968316E-05  0.92479475E-06  0.12657608E-05  0.12740287E-05
  0.64123353E-06  0.56463326E-05 -0.34035887E-05  0.20868328E-04 -0.23707889E-04
  0.28404383E-04  0.77929765E-05 -0.11437500E-04 -0.10964308E-05  0.20003676E-05
  0.26593564E-06  0.40447945E-06  0.36786240E-06  0.41631937E-06 -0.23233732E-05
  0.89252141E-06 -0.47195017E-06 -0.65537807E-06 -0.13677015E-05 -0.37291824E-06
 -0.59061740E-05  0.99568543E-05  0.32315704E-05 -0.85523798E-05 -0.47545928E-05
  0.46343569E-05 -0.61761593E-05  0.15964683E-04 -0.13493771E-06 -0.14814832E-05
 -0.15875499E-06  0.18990405E-06 -0.18314344E-05  0.10611518E-05 -0.68861857E-06
 -0.51716298E-06 -0.18887509E-05 -0.80909102E-07 -0.13813202E-05 -0.13207677E-06
 -0.57355340E-06 -0.39593541E-06  0.54144038E-06  0.10565989E-05  0.31752363E-06
 -0.73629613E-06 -0.79180002E-07  0.77327699E-06  0.15148575E-06 -0.39149139E-06
  0.81701856E-06 -0.19574402E-06 -0.47453119E-06 -0.49575804E-06  0.40591422E-06
 -0.44555738E-06  0.17598622E-05 -0.72023600E-06  0.13891936E-05  0.38401714E-05
 -0.17710253E-05  0.20636340E-05  0.50317799E-07  0.87068553E-06  0.84430552E-06
  0.76939652E-05 -0.12023843E-05  0.16314233E-05 -0.11505436E-05 -0.29657085E-05
 -0.12197226E-07  0.38334057E-06  0.86433810E-05  0.13209601E-04  0.65611421E-04
  0.82801699E-05  0.25204893E-04 -0.39409848E-04  0.16261594E-03 -0.14577584E-04
 -0.18235839E-04  0.19002525E-04  0.12517989E-05  0.74458305E-06 -0.10653992E-05
 -0.50272365E-06  0.23977967E-05  0.14258838E-06  0.18137379E-04 -0.46937055E-06
  0.24038523E-05  0.27922361E-04  0.74587005E-05 -0.16989119E-04  0.35710019E-04
  0.11766106E-04 -0.98615556E-05  0.59111955E-05  0.23567632E-04 -0.20701821E-04

 -0.16549194E-06 -0.58637680E-06 -0.49332499E-06  0.35877267E-06  0.13049129E-05
  0.57364241E-06 -0.46049922E-07 -0.41192889E-06  0.95077212E-06  0.41357659E-06
 -0.42154479E-06  0.17106774E-05  0.67751266E-06 -0.20402962E-06  0.21582913E-06
  0.35364776E-06 -0.11999435E-05  0.87031715E-07 -0.59173977E-05 -0.13914586E-05
  0.11148344E-04  0.53483170E-04 -0.19417274E-04  0.51482261E-05  0.81853206E-05
  0.45682013E-05  0.50025871E-05 -0.48484741E-06 -0.13520412E-06  0.42875306E-06
  0.91061141E-06  0.32332182E-06 -0.37529521E-05 -0.38763679E-06 -0.49237555E-07
 -0.46319601E-06  0.13039732E-05 -0.27087269E-06  0.41623802E-05  0.87590726E-05
  0.47108484E-05 -0.88549262E-05  0.44449177E-06 -0.27971703E-05 -0.86093263E-05
  0.52149684E-06 -0.12220734E-05 -0.88375010E-06 -0.16504136E-05  0.34668647E-06
 -0.10778021E-05  0.24733079E-06 -0.15580952E-05  0.31774600E-06 -0.67090869E-06
 -0.43312078E-06 -0.19561251E-06  0.10593376E-05 -0.11576457E-07 -0.10557790E-05
 -0.90010299E-07 -0.81901826E-06 -0.35484560E-07  0.23775911E-06  0.73848942E-06
 -0.72132412E-06 -0.20677804E-05  0.77965000E-06  0.25689526E-06 -0.52531844E-07
 -0.17360072E-05 -0.10329909E-06 -0.90402137E-07  0.70131289E-06 -0.74569752E-06
  0.33569345E-07 -0.86500307E-07  0.11341748E-05 -0.67711192E-07  0.80507097E-06
 -0.17682602E-06 -0.78215935E-06  0.73274099E-06 -0.10931247E-05  0.39821181E-06
 -0.95069537E-06  0.59530792E-06  0.30929027E-06 -0.17339672E-07  0.50120383E-06
  0.55541429E-05 -0.85831273E-05  0.95850777E-05 -0.71264118E-06  0.41131984E-05
  0.10581287E-04 -0.20179535E-05  0.11742008E-04 -0.75094031E-06 -0.79660562E-06
 -0.28776398E-06 -0.54884313E-06  0.18240335E-07  0.25925308E-06  0.52492933E-06
 -0.18579802E-06 -0.68929958E-06 -0.94164787E-06 -0.20901580E-05 -0.28281170E-05
  0.10589671E-04 -0.15728196E-05  0.57893367E-05 -0.24249363E-04  0.57450944E-05
 -0.59053896E-05 -0.16286100E-04  0.46699244E-06  0.16128477E-05 -0.10312961E-05
 -0.73154932E-07 -0.29020859E-06  0.11586557E-05  0.39327692E-06  0.51747132E-06
 -0.32606111E-06 -0.54419119E-05  0.16267969E-04 -0.65810888E-06  0.13058436E-04
 -0.12378188E-04 -0.66314087E-05 -0.51089701E-05  0.25897013E-08 -0.28981518E-05
 -0.16292072E-06  0.91667538E-06  0.58000245E-06  0.63175015E-07 -0.73561395E-06
  0.18248493E-05  0.24426276E-06 -0.72336246E-06 -0.42283927E-06 -0.51085350E-05
 -0.47331578E-05  0.10677554E-04  0.81128306E-05 -0.18722121E-05 -0.84131079E-05
 -0.51783518E-05 -0.10152155E-05  0.13523701E-05  0.25805408E-06 -0.41893852E-06
 -0.49027111E-06  0.79782406E-06 -0.85657396E-07  0.32127491E-06 -0.56144975E-06
  0.20756474E-06  0.10079184E-07  0.81327551E-06 -0.55946511E-06 -0.37050912E-07
 -0.39490740E-06 -0.46049049E-06 -0.21316337E-06 -0.10077582E-05  0.96729821E-07
 -0.60871587E-06  0.25409674E-07 -0.27959819E-06 -0.11899667E-06 -0.13316809E-05
  0.33907725E-06  0.98376427E-06  0.61499439E-06 -0.91394449E-06  0.30722495E-06
  0.59518687E-06  0.54326526E-06  0.20434193E-05 -0.20721928E-06  0.63002953E-06
 -0.50608060E-06  0.51034179E-07 -0.39290595E-06  0.46116467E-06 -0.99093470E-07
 -0.54057363E-05 -0.25147997E-06 -0.12795460E-05  0.68965355E-05 -0.25512393E-05
  0.25575668E-05 -0.15796869E-05 -0.48776877E-05 -0.12079212E-04 -0.26708850E-04
  0.34314965E-04 -0.30487194E-04  0.46893948E-04 -0.17727531E-04  0.59290105E-05
  0.20612139E-04  0.34172100E-04 -0.33375792E-06 -0.11409824E-05  0.83892664E-06
  0.28520372E-05 -0.12646471E-05  0.20861081E-05 -0.46937055E-06  0.12738109E-04
  0.18421560E-05  0.26878821E-05 -0.79490732E-05  0.52525270E-06  0.39228581E-04
 -0.14798729E-04  0.88375610E-05  0.17198500E-04  0.12581534E-04 -0.58363172E-05

 -0.72207004E-06 -0.19488659E-05 -0.52450773E-06  0.26855088E-06 -0.33920790E-06
  0.16538049E-05  0.90108191E-06 -0.49019558E-06 -0.11172538E-05 -0.38536276E-06
  0.16468545E-05 -0.12010633E-05  0.21895382E-06  0.16666367E-05 -0.17016864E-05
  0.64405076E-06  0.15191943E-06 -0.60521062E-07  0.28429707E-04  0.23388135E-04
  0.12115932E-04 -0.37811996E-05  0.32126044E-05  0.19346801E-04 -0.48905953E-05
 -0.19329356E-04 -0.16988391E-04  0.13880157E-06 -0.10515079E-05  0.11894177E-06
  0.27599379E-06 -0.17078263E-05 -0.75669824E-06 -0.18850802E-05 -0.95480692E-07
 -0.17158033E-05  0.59520810E-05  0.62914612E-05  0.13664361E-04  0.11639227E-04
 -0.30851477E-04 -0.19124286E-04  0.56971452E-05 -0.39218976E-05  0.14203505E-04
 -0.46234470E-07  0.12523394E-05 -0.12325628E-05  0.49524416E-06  0.77756833E-06
 -0.12350744E-05  0.95841169E-06  0.24173653E-06 -0.50934319E-06  0.13644603E-05
  0.39951649E-06  0.91151018E-07 -0.94116874E-07  0.14337978E-05  0.79045767E-06
 -0.40175978E-06 -0.25475201E-06  0.13031073E-05  0.25272114E-06  0.82109290E-06
 -0.87914550E-06  0.64888063E-06  0.24484548E-05 -0.92583954E-06 -0.26569689E-06
  0.75287968E-06  0.30278621E-06 -0.57975043E-06  0.33089684E-06 -0.11397910E-05
  0.83842773E-06 -0.16139827E-05 -0.48593038E-06 -0.88305430E-06  0.13822851E-06
 -0.16169364E-05  0.45277439E-06 -0.36484386E-06 -0.15066389E-05 -0.24222232E-06
 -0.30381000E-05  0.31797843E-05 -0.89782383E-06 -0.12978502E-05  0.16181264E-05
  0.65479543E-05 -0.35272903E-05 -0.80031591E-05  0.19648349E-05  0.12835372E-04
 -0.42331518E-06 -0.19134226E-05 -0.69596096E-05  0.38573936E-05  0.38368439E-06
  0.33997372E-05  0.10519779E-05  0.45519054E-07  0.29731368E-05  0.45544283E-07
  0.76904930E-06  0.90629312E-06 -0.21524550E-05 -0.40834305E-06  0.12439910E-04
  0.30755596E-04  0.34815672E-06  0.20297348E-04 -0.13184673E-04 -0.81757121E-05
  0.41720543E-05  0.23177540E-04  0.11961095E-06 -0.16708920E-06  0.45058097E-06
 -0.90316609E-06  0.26758998E-05  0.18462680E-05  0.19614089E-07 -0.29511230E-06
 -0.15458833E-06  0.57009609E-05  0.64619874E-05  0.93088229E-05  0.14900529E-04
  0.26870637E-05 -0.30876938E-04 -0.15135973E-04  0.90892330E-05 -0.69143709E-05
  0.10017755E-05 -0.24727270E-06 -0.70585265E-06  0.93348244E-06  0.24028593E-06
 -0.17086531E-05 -0.10740343E-05  0.89491730E-06 -0.29260386E-06 -0.46918209E-06
  0.65312067E-05  0.78907852E-05 -0.34613877E-05 -0.13219142E-04  0.47618533E-05
  0.84521342E-05 -0.11606147E-04 -0.58645783E-05 -0.46034296E-06  0.86478363E-06
  0.22363389E-06  0.56329806E-06 -0.81566418E-06 -0.77051859E-06 -0.12296991E-05
 -0.94148221E-06 -0.22519755E-06  0.91341208E-06 -0.71729769E-06  0.42297060E-06
  0.73351336E-07 -0.73477613E-06  0.87602150E-06 -0.68643017E-06 -0.79967654E-06
  0.20878231E-05 -0.63857561E-06 -0.26103066E-06  0.27680424E-06  0.10623149E-05
 -0.39586622E-05  0.12932346E-06  0.34384328E-06 -0.39894716E-06  0.16786998E-05
 -0.35682230E-06  0.25169707E-05  0.28356851E-06  0.27826396E-06  0.27147960E-05
  0.14869591E-06  0.43452545E-06 -0.56224628E-06 -0.34552609E-06 -0.46875362E-05
 -0.51005644E-05  0.33937075E-06  0.19200129E-05  0.26302539E-05 -0.92429227E-06
  0.77450891E-05 -0.28635390E-05 -0.25874743E-05 -0.15080890E-04 -0.14253032E-04
  0.38451292E-05 -0.18355609E-04  0.28911018E-04 -0.32197137E-04 -0.41363987E-05
  0.38520280E-04  0.57646971E-04 -0.17648081E-05 -0.41406706E-05  0.11069380E-05
  0.34416801E-06  0.10874648E-05  0.18175591E-05  0.24038523E-05  0.18421560E-05
  0.24634459E-04 -0.25628531E-04 -0.43971062E-04 -0.34299834E-04  0.12570003E-03
 -0.56560863E-04  0.22963503E-04 -0.27013947E-04  0.12207804E-04 -0.37630674E-04

 -0.27535544E-05 -0.55676105E-05  0.99114431E-05 -0.80181317E-05  0.23125048E-04
  0.26661048E-04  0.86897753E-06  0.58556057E-05  0.85477698E-05 -0.10827259E-04
  0.26550469E-04  0.19587653E-04 -0.82514388E-05  0.27325242E-04 -0.19301542E-04
  0.15124610E-04 -0.12742615E-04  0.13645802E-04  0.26377387E-03  0.25511420E-03
 -0.88750039E-04  0.10371019E-02 -0.15949329E-03 -0.58568056E-03 -0.27182134E-03
 -0.45623367E-03 -0.77434350E-03  0.11191889E-04  0.17532714E-04 -0.15459036E-04
  0.19159777E-04  0.31627552E-05  0.19791479E-04  0.10018782E-04 -0.24825475E-05
 -0.22554125E-04 -0.13101944E-04  0.20724242E-03 -0.56290490E-04 -0.88401226E-04
 -0.82601770E-04 -0.23346957E-03  0.62587900E-05  0.66277785E-04 -0.39684317E-03
 -0.20788786E-04  0.25887528E-04 -0.77018828E-05  0.18330905E-04  0.22189482E-04
  0.16201239E-04  0.97205494E-05  0.28649419E-05  0.34470978E-06  0.18189704E-04
 -0.19823438E-04  0.16485064E-04  0.94880975E-05 -0.53428449E-05  0.13111766E-04
  0.47108806E-05 -0.26236979E-05 -0.11825888E-04 -0.17764250E-04 -0.26765525E-04
  0.33536031E-05  0.92054830E-05 -0.14859524E-05  0.74151414E-06 -0.30036409E-05
  0.11139585E-04  0.10903853E-04  0.29253992E-05 -0.44308911E-05  0.24978487E-04
  0.14958506E-04 -0.63529090E-05  0.40801865E-05  0.10553280E-04 -0.75086057E-05
  0.19640405E-04 -0.15286682E-04 -0.31965027E-04  0.17733934E-04  0.10036436E-04
  0.24460981E-04 -0.63775958E-05  0.25632150E-05  0.10606634E-04 -0.14297068E-04
 -0.23021794E-03 -0.18685128E-04  0.12990662E-03 -0.47659103E-04 -0.38726676E-04
  0.12605535E-04 -0.71534172E-04 -0.72492926E-04  0.18969337E-03  0.17848861E-04
  0.39741454E-04  0.50455208E-05 -0.18659146E-04  0.15853920E-04  0.17260704E-04
 -0.36822267E-05 -0.97412944E-05  0.33222120E-04 -0.21325730E-03 -0.26790123E-04
 -0.43202452E-03  0.20366095E-03 -0.11722873E-03  0.68544310E-03 -0.87866663E-05
 -0.40629762E-04  0.18431178E-04 -0.73585076E-06  0.12370710E-04 -0.23779440E-04
  0.23040320E-05 -0.14928516E-04  0.26528091E-04  0.73753151E-06  0.97185427E-05
  0.20464944E-05  0.23690792E-03  0.16208782E-03 -0.20184958E-03 -0.31145316E-03
  0.34259394E-03 -0.18402617E-03  0.25617996E-04 -0.23257966E-03 -0.61536918E-04
 -0.68630773E-05  0.16313325E-04  0.14650541E-04 -0.22540265E-04  0.13131068E-04
  0.26218185E-04 -0.55165902E-05  0.65287808E-07 -0.19309821E-04  0.10899114E-03
  0.13308867E-03 -0.46725960E-04  0.66857405E-04 -0.91809343E-04 -0.11856552E-03
  0.70462335E-05  0.10420794E-03  0.22205271E-03 -0.19296102E-04 -0.18361617E-04
 -0.42991178E-05 -0.14552551E-04  0.19996312E-04 -0.15314085E-05 -0.11760208E-04
 -0.37052761E-05 -0.20608568E-04  0.66025954E-05 -0.36806897E-04 -0.16609078E-05
  0.80017502E-05 -0.11783483E-04  0.45610346E-06  0.18935791E-04 -0.87026614E-05
  0.96105696E-05  0.49287807E-05  0.38710213E-04  0.40359416E-05 -0.20303441E-04
  0.44451246E-04  0.18426939E-04 -0.18678716E-04 -0.79260371E-05  0.26892776E-04
  0.34320841E-05 -0.27871722E-04 -0.93956698E-05  0.18884294E-04  0.15597048E-04
 -0.11563407E-04 -0.11897898E-04  0.11770682E-04  0.15753799E-04  0.81509184E-06
  0.16881219E-04 -0.85394302E-05  0.89890163E-05 -0.59015635E-05 -0.28484542E-04
  0.12663911E-04 -0.43983125E-05 -0.13031320E-05 -0.47756911E-04  0.18063328E-03
  0.18069340E-03 -0.75832811E-04 -0.12572722E-04 -0.36460263E-03  0.48254187E-03
  0.61070559E-03 -0.13647402E-03  0.13869915E-04  0.18446937E-04  0.13499494E-04
  0.25213169E-04 -0.32028980E-04 -0.82619127E-05  0.27922361E-04  0.26878821E-05
 -0.25628531E-04  0.48060425E-02  0.64460859E-03  0.10225567E-02 -0.32157959E-03
  0.14934806E-03  0.29175295E-03 -0.19885007E-04 -0.14306890E-03 -0.30591318E-03

  0.16073707E-05 -0.24491397E-05 -0.10885024E-04 -0.13461766E-04  0.62665102E-04
 -0.11152078E-04 -0.16065712E-05  0.29549644E-05  0.19648411E-04  0.17180431E-04
 -0.32183000E-05  0.16361117E-04  0.12035883E-04 -0.29703962E-04  0.10952826E-05
  0.30805326E-05  0.10621399E-04 -0.56517856E-05 -0.18667589E-03  0.10845884E-03
  0.67921777E-04  0.28123659E-03 -0.31831666E-03 -0.71441610E-04  0.27084608E-03
 -0.27631838E-04 -0.18376188E-03 -0.50970141E-05  0.87215057E-05 -0.19036984E-04
  0.34471927E-05  0.18978621E-04  0.51063710E-05 -0.11149583E-04 -0.52377441E-05
 -0.58396801E-05 -0.14453040E-04  0.32917173E-03  0.16609491E-03  0.27359888E-04
 -0.29215054E-03  0.72454351E-04  0.25708818E-04  0.15537476E-03 -0.17026788E-03
 -0.12910203E-04 -0.35032118E-04  0.16961263E-04 -0.60946465E-05 -0.13238620E-04
  0.23203596E-04  0.13242152E-04 -0.10298123E-04  0.10680736E-04 -0.87643723E-05
  0.32799890E-05 -0.63255581E-05 -0.19555586E-05 -0.15831452E-04  0.83265268E-05
 -0.67310277E-05 -0.85386704E-05 -0.77208007E-05 -0.46813766E-05  0.12361479E-04
  0.65429429E-05 -0.54424732E-05 -0.25577741E-06  0.15435454E-05  0.15431920E-05
  0.94385414E-05 -0.17973871E-05 -0.12521879E-04 -0.30505379E-04 -0.27405449E-05
  0.13067080E-04 -0.13799033E-05 -0.16629782E-04  0.67531939E-05 -0.23534199E-05
  0.60428988E-06 -0.95533936E-05  0.35422374E-05  0.22887840E-04  0.18582259E-04
  0.35157722E-05 -0.19856076E-04  0.18020660E-04  0.12202523E-04  0.92044721E-05
 -0.13422521E-03 -0.53354372E-04  0.16447386E-03  0.13548141E-03  0.14132816E-04
 -0.12465403E-03 -0.19219364E-04 -0.12480349E-03 -0.18027649E-06  0.42924664E-05
 -0.36719261E-04 -0.12576972E-04 -0.96409326E-05 -0.14032027E-05  0.94744617E-05
 -0.17547569E-04 -0.14665616E-05  0.17757225E-04  0.10393352E-03 -0.33355132E-03
 -0.46921342E-03 -0.15231174E-03  0.13882857E-03  0.34933227E-03  0.89761777E-04
 -0.27866318E-04 -0.81750016E-04  0.36993336E-04  0.53244736E-05 -0.11370430E-04
  0.16252017E-04  0.75129843E-05  0.21712175E-04 -0.13496524E-04  0.10587526E-04
 -0.41657455E-05 -0.30697969E-04  0.48240837E-03 -0.15711027E-03 -0.47766447E-03
 -0.82200244E-04  0.10990242E-03  0.51953370E-03  0.53943638E-04 -0.24210155E-03
 -0.27650368E-05 -0.20546818E-04  0.38695726E-05  0.24575967E-05 -0.35747030E-04
  0.20974749E-04 -0.13560143E-04 -0.48359656E-05 -0.42467817E-05 -0.39855504E-04
  0.12484669E-03  0.11600118E-04  0.12459392E-03  0.14844088E-03 -0.13930889E-03
 -0.92741460E-04  0.31826030E-04  0.63687200E-04 -0.11573022E-04 -0.35904572E-04
  0.91708928E-05  0.28004242E-05  0.10530336E-04 -0.14558578E-04 -0.57504858E-05
 -0.41130687E-05 -0.71991189E-05 -0.18777962E-05 -0.25062382E-04  0.36929691E-05
 -0.11335618E-06  0.36147514E-04  0.12439096E-04  0.10373536E-04 -0.34541428E-05
  0.10483400E-04  0.90425615E-05  0.49056031E-04  0.35067028E-04 -0.39563187E-04
  0.53063963E-04  0.23835687E-04  0.26186599E-05  0.28915363E-07  0.52549800E-04
  0.79983768E-05 -0.60860958E-05 -0.17925053E-04  0.47742538E-05 -0.20653421E-04
  0.63421248E-05  0.13299850E-04  0.34396672E-05  0.23980698E-05 -0.99669196E-05
  0.12287999E-04  0.38257928E-05 -0.31777809E-05  0.35945958E-04 -0.70659477E-05
 -0.85148577E-05  0.33791325E-05  0.27866431E-05  0.17769302E-04  0.93574005E-04
  0.34027001E-03 -0.15883369E-03  0.51147088E-03 -0.43614231E-03 -0.11993827E-03
  0.19627587E-03  0.24175918E-03  0.20919154E-04  0.22077933E-04  0.31977201E-04
  0.31951550E-04 -0.35117555E-04 -0.24660144E-04  0.74587005E-05 -0.79490732E-05
 -0.43971062E-04  0.64460859E-03  0.33490741E-02 -0.32083132E-03  0.38687728E-03
  0.30430763E-04 -0.11043982E-03  0.18755731E-03 -0.18257780E-03 -0.35944331E-04

  0.16821544E-04 -0.17848537E-05 -0.34455798E-04  0.68048261E-05 -0.18326572E-05
  0.48975399E-04 -0.15338784E-04  0.11038406E-04 -0.21213687E-05  0.12109899E-04
 -0.74699152E-05  0.26573714E-04  0.98374646E-05  0.43671925E-05 -0.28104859E-04
 -0.15517144E-05  0.47585611E-05  0.16238757E-04 -0.37818362E-03 -0.10289915E-03
 -0.48756083E-04 -0.64882697E-04 -0.67893985E-03 -0.10114897E-04 -0.98865497E-03
 -0.45222851E-03 -0.10796157E-03  0.39603713E-05  0.61144012E-05  0.12437594E-04
  0.14219082E-05 -0.20385125E-04  0.10207042E-04  0.23884702E-04 -0.11627247E-04
  0.25432956E-04 -0.14584914E-03  0.19816363E-03 -0.27206656E-03 -0.16557100E-03
  0.19437421E-03 -0.69907822E-04 -0.54733503E-03 -0.38333692E-03  0.10606730E-03
 -0.21063939E-04 -0.28597477E-04 -0.27617489E-04  0.77238264E-05  0.32040670E-04
 -0.51147549E-05  0.67065012E-06  0.26800093E-04  0.17110681E-04  0.25698385E-04
 -0.25317578E-04  0.56187812E-04  0.32840288E-05  0.41628019E-05 -0.58700770E-05
 -0.75728196E-05  0.22095029E-04  0.12640452E-04  0.41384295E-05  0.12469304E-04
 -0.13175364E-04 -0.82909422E-05 -0.31083901E-04  0.37536131E-04  0.96573803E-05
 -0.26801705E-04 -0.13330727E-05  0.27794853E-04  0.28682457E-04  0.11326299E-04
 -0.14864785E-05 -0.54452839E-05  0.98047486E-05  0.13712474E-04  0.18633118E-04
  0.70728101E-05 -0.99298480E-05 -0.57589428E-05 -0.20183022E-04 -0.14305099E-04
  0.37498203E-04  0.80710154E-05 -0.37418179E-05 -0.17231236E-05  0.10263287E-05
  0.19164334E-03 -0.53535490E-03 -0.50245908E-04  0.45358234E-04 -0.53202397E-03
  0.19868954E-03  0.23851246E-03  0.83547313E-04 -0.11889727E-03  0.29937129E-05
 -0.42024050E-04  0.26211335E-04 -0.69753538E-05 -0.13998656E-04  0.27846486E-04
  0.16681588E-04  0.37570974E-05 -0.18526352E-05 -0.47700095E-03 -0.41464757E-05
 -0.10050358E-03  0.11690897E-03  0.36329864E-05 -0.59671961E-03  0.12822746E-03
  0.48055569E-03  0.46435000E-04 -0.91044134E-05  0.45999500E-04  0.18473849E-05
 -0.26080847E-05 -0.12667612E-04 -0.41661884E-05 -0.13179572E-05  0.46160083E-05
 -0.35505523E-04 -0.39154111E-03  0.33962237E-03 -0.12799764E-03  0.51058050E-03
 -0.46817156E-03 -0.10812668E-02 -0.83916774E-04 -0.20030789E-03 -0.38927940E-04
  0.17090779E-04 -0.15543107E-04  0.23350319E-04 -0.15641952E-04  0.22393511E-04
  0.27214538E-04 -0.19478546E-05  0.13278828E-04 -0.26821261E-04 -0.25297754E-03
 -0.15642029E-03  0.13911889E-03 -0.48521261E-04  0.27162140E-03 -0.64252449E-04
  0.13904829E-03  0.58348468E-04 -0.37179817E-03 -0.37852491E-05 -0.44471500E-04
 -0.37929414E-04  0.21480732E-04  0.57732033E-05 -0.16904663E-04 -0.15184238E-04
 -0.21463925E-04 -0.13840841E-04 -0.37373425E-06  0.46992200E-04  0.49736374E-04
 -0.18268207E-04 -0.12680117E-04  0.26323498E-04  0.76041694E-05 -0.16152693E-04
  0.31761353E-04 -0.69607432E-05  0.81342527E-04  0.16033984E-04 -0.30903545E-04
  0.96950225E-04  0.92291036E-05  0.47572363E-05  0.87177684E-05  0.85222352E-04
  0.15272981E-04 -0.26184802E-04  0.34284318E-04  0.14346101E-04  0.36984832E-05
  0.65521296E-05 -0.10563856E-05 -0.14610001E-04 -0.32074385E-04 -0.18599605E-04
  0.80817043E-05 -0.35449669E-05  0.78322692E-05  0.38654775E-04 -0.31329495E-04
 -0.12631877E-04 -0.31177467E-04  0.30080592E-04  0.32813471E-03 -0.53633960E-03
 -0.39615121E-03  0.15651939E-03  0.48696468E-03 -0.16697608E-03  0.15578322E-03
  0.11668859E-03  0.18034573E-03  0.10742237E-04  0.32177499E-04 -0.59330829E-06
  0.44995373E-04 -0.60138496E-04 -0.38882287E-05 -0.16989119E-04  0.52525270E-06
 -0.34299834E-04  0.10225567E-02 -0.32083132E-03  0.64723412E-02  0.10959981E-02
 -0.24099433E-03 -0.12799350E-03 -0.47105966E-05  0.92721781E-04 -0.39190850E-03

 -0.27054807E-04  0.42439967E-04 -0.19995397E-04  0.27212691E-04  0.39846333E-04
  0.18095291E-04  0.48598853E-05 -0.12524871E-04  0.11088954E-04  0.36661323E-04
 -0.43334900E-04 -0.48456460E-04  0.37333945E-04 -0.70005843E-07 -0.12264948E-04
  0.11234549E-04  0.21506241E-04  0.95435061E-05 -0.71916198E-04 -0.24690257E-03
  0.35787795E-04 -0.19715734E-02  0.40182925E-03  0.89838564E-03  0.40814360E-03
  0.25995157E-03  0.27942483E-03  0.40124909E-04  0.39974749E-04  0.18960457E-04
 -0.14498202E-04  0.16120077E-04  0.31684692E-04  0.39546270E-04 -0.49519626E-04
  0.95309877E-05  0.25786521E-03  0.20218607E-03 -0.18645686E-03  0.16875315E-03
 -0.40936463E-03 -0.34719278E-03 -0.41201320E-03 -0.53729270E-03  0.19037908E-03
 -0.68859262E-05 -0.42567765E-04 -0.23907519E-04 -0.31328070E-04  0.79877533E-04
  0.69234947E-05 -0.81435441E-05  0.35880675E-05  0.98061800E-05  0.10922715E-03
 -0.40865139E-05  0.48385764E-04 -0.80543783E-04 -0.11478383E-04  0.34810981E-04
 -0.50250049E-04 -0.14452386E-04 -0.21679672E-04 -0.11677721E-04 -0.13035243E-04
 -0.23971539E-04 -0.43441334E-04  0.26491523E-04  0.40146912E-04  0.10772055E-04
  0.12016778E-04  0.12329772E-04  0.45409366E-04 -0.47293598E-04 -0.21622991E-04
  0.72061700E-04 -0.44987882E-04 -0.24336834E-04  0.46982203E-04  0.12636122E-04
 -0.53431036E-05  0.30284463E-05  0.41297403E-04 -0.22460550E-06 -0.12325323E-04
 -0.45120258E-05  0.12891548E-04  0.30891096E-04 -0.24524247E-05 -0.13160628E-04
  0.31916876E-04 -0.25322780E-03 -0.26235894E-03  0.45907320E-03 -0.46908855E-03
  0.55172613E-04  0.28781676E-03 -0.78348227E-04 -0.13696839E-03 -0.63940858E-05
 -0.48232325E-04  0.23773725E-04  0.46037642E-04 -0.40136837E-04  0.34002793E-04
  0.13408565E-04 -0.28857343E-04 -0.42383416E-04  0.16071269E-04 -0.35852240E-03
  0.12464339E-03 -0.83612557E-03 -0.63007022E-04 -0.32524794E-03  0.44640654E-03
  0.94348692E-04 -0.55075831E-04  0.36315279E-04 -0.12949248E-04  0.37952834E-05
  0.34091520E-04 -0.21340991E-04 -0.90399859E-06 -0.12689586E-04  0.58548930E-04
  0.45128727E-04 -0.59415180E-03  0.70678765E-03  0.13824751E-03  0.18762865E-02
 -0.32297663E-03 -0.14243327E-02 -0.46151919E-03  0.47675914E-03  0.26076328E-03
  0.54214063E-05 -0.10820990E-04 -0.17844363E-06 -0.32914126E-04  0.35355852E-04
  0.66517762E-05 -0.11240380E-04 -0.46587788E-05 -0.43169688E-04 -0.42571582E-04
  0.28123098E-03  0.13890128E-03  0.56011162E-03  0.22576832E-03 -0.44343369E-03
  0.86135803E-04  0.19057706E-03 -0.51091421E-04 -0.50203104E-04 -0.38252126E-04
 -0.20783360E-04  0.52473595E-04 -0.49238218E-04  0.24739138E-04 -0.16130301E-04
 -0.14984223E-04  0.12512265E-05  0.17495964E-04  0.42310431E-05  0.48044340E-04
  0.13367730E-05 -0.12345729E-04  0.50337008E-04 -0.12500731E-04 -0.18067879E-04
  0.20644922E-04  0.94521189E-05  0.16642737E-03  0.99258633E-04 -0.70835974E-04
  0.16340577E-03  0.48251925E-04  0.48847685E-05  0.13200093E-04  0.17284723E-03
 -0.20195075E-04 -0.11293552E-04  0.43343867E-05 -0.21163421E-04  0.45424387E-04
  0.28768948E-04  0.12910509E-05 -0.37916894E-04 -0.36283956E-04 -0.16577626E-06
 -0.63318045E-05 -0.14202044E-04  0.46579548E-04  0.99559773E-04 -0.15708593E-04
  0.48402136E-04 -0.43273599E-05  0.32108740E-05  0.34605551E-03 -0.69995500E-03
 -0.32680014E-03  0.12075746E-03  0.35376119E-03 -0.21361904E-03  0.27146943E-03
  0.38329391E-03 -0.38011165E-05 -0.27030219E-04 -0.14098255E-03 -0.83967913E-04
  0.12833837E-04  0.11685868E-03  0.29153883E-05  0.35710019E-04  0.39228581E-04
  0.12570003E-03 -0.32157959E-03  0.38687728E-03  0.10959981E-02  0.20872213E-01
 -0.42001525E-02 -0.54779052E-02  0.13493930E-03  0.14773661E-03 -0.14797563E-02

  0.81804758E-07 -0.78177186E-06  0.39510515E-05 -0.63009787E-05 -0.18839346E-04
  0.15327968E-04  0.18574778E-05  0.12688219E-04  0.12275064E-04 -0.76908913E-05
 -0.13054311E-04  0.16986488E-04 -0.73839113E-05 -0.14967959E-04  0.14382792E-04
  0.88856965E-06 -0.13477676E-05 -0.55263762E-05 -0.12549232E-03  0.55822652E-04
 -0.13565037E-03  0.16541891E-03 -0.37812619E-03 -0.46280459E-04 -0.16820401E-03
  0.93868859E-04  0.14021449E-03  0.31520072E-05 -0.10632416E-05  0.23410139E-05
 -0.52811818E-05  0.18505373E-04 -0.13770859E-04  0.21902863E-04  0.21754001E-05
 -0.98231399E-06 -0.78415411E-04  0.20602909E-04 -0.80826763E-04 -0.23526503E-04
  0.30603158E-03  0.30044942E-04  0.99215214E-04  0.22068067E-03 -0.11692665E-03
 -0.64533572E-05  0.15930816E-04  0.24989050E-04  0.13108669E-04 -0.24438614E-04
  0.63367530E-05 -0.20256604E-06  0.23709998E-05 -0.16136861E-04 -0.10361717E-04
 -0.16860637E-05 -0.53426205E-05  0.19750819E-04 -0.89091538E-05 -0.57115759E-05
  0.54034307E-05  0.77375157E-05 -0.19794340E-04 -0.44453034E-05  0.11142976E-05
 -0.22303569E-06  0.13499115E-04 -0.34948772E-04 -0.18375709E-05 -0.15936191E-04
  0.11524985E-05 -0.16374320E-04 -0.12709893E-04  0.66396569E-05  0.61446718E-05
 -0.24476942E-04 -0.18170242E-04  0.15907881E-04 -0.13131832E-04 -0.74177882E-05
  0.77917298E-05 -0.26289395E-05 -0.11668892E-04  0.31931723E-05  0.45073654E-05
  0.25605753E-04 -0.12179134E-04  0.60084961E-05  0.33094774E-05  0.37547613E-05
 -0.95222218E-04  0.46655810E-04  0.62413154E-04 -0.77563643E-04  0.31145473E-04
  0.45508826E-04 -0.13543790E-04 -0.88467533E-04  0.16228184E-03 -0.35637667E-05
 -0.38535843E-05 -0.14322431E-05 -0.28782686E-04  0.54200808E-04 -0.25603294E-04
 -0.94864626E-05 -0.32881097E-05  0.29371077E-04  0.46569380E-04 -0.35371033E-03
 -0.12227144E-03  0.90157638E-04  0.17151025E-03  0.14147343E-03 -0.29759725E-03
 -0.16315633E-03  0.74682703E-04 -0.23308694E-04  0.17891385E-04  0.43056395E-05
  0.19832072E-04 -0.46565708E-04  0.24979745E-05  0.92413445E-06 -0.17245219E-04
  0.13633138E-04  0.43211865E-03 -0.11891331E-03 -0.32848016E-04 -0.28583772E-03
 -0.11442433E-02  0.32019591E-03  0.41374597E-03  0.69858555E-04 -0.70375925E-04
  0.25619493E-05  0.33312634E-04 -0.27030690E-05  0.63996652E-05 -0.33338422E-04
  0.15665093E-04  0.12977097E-04 -0.54730310E-05 -0.35030329E-05 -0.58964085E-05
 -0.34775562E-03  0.53880563E-04 -0.83759098E-04 -0.89655229E-04  0.23293985E-03
 -0.72277734E-04 -0.57482861E-05 -0.16229963E-03  0.29731504E-05  0.80444211E-05
  0.16461418E-04 -0.89010358E-05 -0.30531627E-04  0.24217845E-04  0.81094904E-05
  0.35829152E-05 -0.17019255E-04 -0.30419360E-05 -0.16532221E-04 -0.25557722E-05
  0.87438935E-05 -0.41871933E-04 -0.62554263E-05 -0.29237106E-05  0.64669536E-06
 -0.16420976E-04  0.47940137E-05 -0.14732095E-04 -0.38944894E-04  0.47814513E-05
  0.32995346E-04 -0.42631831E-04 -0.12574064E-04 -0.75659127E-05 -0.46451713E-04
 -0.43815693E-05 -0.51768573E-05 -0.40626290E-05  0.93958617E-05 -0.34587562E-04
  0.53855357E-05  0.16048511E-04  0.13473443E-04  0.99469471E-05 -0.14035997E-04
  0.48863332E-04 -0.18712215E-05 -0.11187165E-04  0.46842332E-05 -0.18808582E-04
 -0.90278425E-05  0.89262671E-05  0.64483431E-05  0.53008223E-04  0.20378751E-04
  0.22865748E-03 -0.80754297E-04  0.46163551E-03  0.34497470E-03 -0.22428438E-04
 -0.94213632E-04 -0.34855346E-03  0.14093930E-04  0.22337827E-04  0.35122751E-04
  0.83238476E-05  0.18658976E-04 -0.43149566E-04  0.11766106E-04 -0.14798729E-04
 -0.56560863E-04  0.14934806E-03  0.30430763E-04 -0.24099433E-03 -0.42001525E-02
  0.48619478E-02 -0.67079801E-03  0.54809590E-03 -0.16708395E-03 -0.84748346E-03

  0.59925077E-05 -0.26949973E-04 -0.39911494E-04  0.32748288E-05 -0.70814504E-05
 -0.43906419E-04 -0.17788397E-04 -0.17008347E-04  0.23101185E-05 -0.23572334E-04
  0.10839695E-04  0.33248493E-04 -0.45024509E-06  0.30455829E-04 -0.22113768E-04
 -0.95575819E-06 -0.23831813E-04 -0.19879233E-04 -0.67797371E-04 -0.63799469E-04
  0.63333740E-04  0.85852165E-03  0.14951640E-03 -0.46827815E-03  0.22670308E-03
 -0.22337540E-03 -0.40428564E-03 -0.16821543E-04 -0.14601842E-04 -0.80267790E-05
  0.29130302E-04 -0.36813188E-04 -0.14441423E-04 -0.33776293E-04  0.14682526E-04
 -0.36912119E-04  0.12331136E-03  0.52486706E-04  0.42029893E-03 -0.39015839E-04
 -0.66789440E-04  0.27992123E-03 -0.13091677E-04 -0.14400775E-04 -0.61646730E-04
 -0.91754754E-05  0.80612619E-06 -0.34740151E-04 -0.90974709E-05  0.23479004E-05
 -0.53547876E-05  0.37616865E-05 -0.14314479E-04  0.44831399E-06 -0.35463762E-04
 -0.33868856E-04  0.52026719E-05  0.30910010E-04  0.21155301E-04 -0.87823824E-05
  0.83017020E-05 -0.32381945E-04  0.12363853E-04  0.65023934E-05  0.23738281E-04
  0.15942064E-04  0.29055941E-04  0.26644863E-05 -0.14126594E-04 -0.57440788E-05
 -0.16881914E-04  0.89821882E-05 -0.20603673E-04  0.59805488E-05  0.10147958E-05
 -0.61233610E-05  0.18013439E-05  0.65015764E-05 -0.15092041E-04  0.16093231E-04
  0.11021883E-04  0.14700313E-04 -0.29113426E-04 -0.19855073E-05 -0.82410106E-05
 -0.46846793E-05  0.10838514E-05  0.44922457E-05  0.92416374E-06  0.15985842E-04
 -0.10299699E-03  0.25366677E-03 -0.45259560E-03 -0.93956517E-04  0.63323292E-03
 -0.42582763E-03 -0.21192466E-03  0.31549610E-03 -0.16383379E-03 -0.15909864E-05
  0.69750099E-05 -0.14941930E-04 -0.17611734E-04  0.31126346E-04  0.37931369E-04
  0.98827106E-05  0.21720991E-04  0.13352778E-04  0.40565328E-03 -0.86777902E-04
 -0.53248582E-03  0.97350381E-04  0.62731728E-04 -0.37999989E-03 -0.16410063E-03
  0.34583933E-03  0.95905808E-04 -0.20303519E-04 -0.20266097E-04 -0.36443463E-04
 -0.17262930E-04  0.27440848E-04  0.15736836E-04  0.59505514E-05 -0.10271178E-04
 -0.66905004E-04  0.19663961E-03 -0.36928516E-03 -0.69430098E-04 -0.29196557E-03
 -0.65955995E-04  0.52945559E-03  0.16448520E-03 -0.32665507E-03 -0.37265118E-03
 -0.88737327E-05  0.54293739E-05 -0.13635183E-04 -0.89651018E-05  0.12531048E-04
  0.18673109E-04 -0.12563725E-04  0.38335219E-05  0.31209048E-04  0.11853240E-04
 -0.24939516E-03  0.29667969E-04 -0.21553656E-03  0.12107116E-03  0.39219112E-03
 -0.33650016E-04  0.80784969E-04  0.47407589E-04  0.25621978E-04  0.18659652E-05
 -0.59356224E-04  0.35834007E-05  0.32120920E-04 -0.59047539E-04  0.37023766E-05
 -0.64296220E-06  0.10065123E-04 -0.26593666E-04 -0.26074916E-04 -0.51285310E-04
 -0.95197470E-05  0.25790649E-04  0.32424486E-04  0.51573901E-05  0.13761223E-04
 -0.28453275E-04  0.19293273E-05 -0.65865321E-04  0.32930059E-05  0.18342846E-04
 -0.79719402E-04  0.64851985E-05  0.12710699E-04 -0.42785958E-05  0.21504256E-04
  0.22603257E-05  0.26593541E-04 -0.16502817E-04  0.18168446E-04  0.54741633E-05
 -0.46719450E-04 -0.48298996E-05  0.17517755E-04  0.40870087E-04 -0.50190717E-05
 -0.38719411E-04 -0.68364413E-05  0.59309337E-05 -0.52316109E-04  0.20445930E-04
 -0.31185383E-05 -0.16281133E-04 -0.18789193E-04 -0.16946037E-03 -0.10754722E-03
 -0.59961996E-04 -0.35886740E-05  0.39621944E-04 -0.16527633E-02 -0.30446864E-03
  0.13600664E-03  0.17615758E-04  0.21236773E-05  0.61898577E-04  0.13125377E-04
 -0.45995262E-05 -0.93032961E-04  0.74105939E-04 -0.98615556E-05  0.88375610E-05
  0.22963503E-04  0.29175295E-03 -0.11043982E-03 -0.12799350E-03 -0.54779052E-02
 -0.67079801E-03  0.98850575E-02 -0.19338007E-03  0.41643186E-03 -0.12875191E-02

 -0.10868848E-05 -0.32433393E-05 -0.59440225E-05  0.26436271E-05  0.35985324E-05
 -0.24765699E-05 -0.26446977E-04  0.15386204E-05  0.12785032E-04  0.26855924E-05
 -0.30459858E-05  0.15242240E-04 -0.97334411E-05 -0.25257503E-04  0.13760807E-04
 -0.15575003E-04 -0.50661619E-05  0.88372850E-05  0.11983862E-03 -0.32306420E-04
  0.16387388E-04 -0.26891613E-03  0.13135280E-05  0.17900685E-03 -0.42516008E-04
  0.63717317E-04 -0.14967747E-04 -0.23255300E-05 -0.17821988E-04 -0.26501438E-05
 -0.39924917E-05  0.57650340E-05  0.83814751E-05  0.72773732E-05  0.46339276E-07
  0.71729187E-05 -0.12137512E-03 -0.39184000E-04 -0.21559890E-03 -0.84221385E-04
 -0.76402738E-05 -0.39734016E-04 -0.20172635E-03 -0.19464859E-03 -0.48480496E-04
 -0.53252132E-05 -0.20488680E-04  0.13657100E-04 -0.65549994E-06  0.24553926E-04
 -0.12142238E-04  0.18378603E-06 -0.36668382E-05  0.11186247E-06 -0.66377790E-05
  0.11957047E-04  0.60074640E-05 -0.75069429E-05 -0.84490906E-05  0.27760418E-04
  0.58746589E-08 -0.70933254E-05 -0.76842065E-05  0.34180709E-05 -0.12874920E-04
 -0.94608537E-05  0.13761664E-05 -0.10244307E-04  0.38766598E-05  0.44114119E-05
  0.19171331E-06  0.18597596E-04 -0.30598191E-05  0.36997881E-05  0.13791667E-05
 -0.50235748E-05 -0.83387418E-05 -0.66747527E-05 -0.50196399E-05 -0.82610946E-05
 -0.86263351E-05 -0.12011351E-04 -0.19639816E-05  0.90100244E-05 -0.11085723E-05
  0.19600572E-04 -0.14484664E-04  0.71901219E-05  0.16004668E-05  0.15361090E-04
  0.32525979E-04 -0.22782932E-04  0.11424732E-03  0.64139161E-04 -0.13975290E-03
  0.39754442E-04 -0.26667966E-04 -0.10967177E-03 -0.80162476E-04 -0.66903456E-05
 -0.77323430E-05 -0.13468753E-04  0.11368621E-05 -0.60806873E-04  0.24661433E-04
 -0.40404284E-05  0.24670647E-05  0.67524098E-05 -0.12080557E-03 -0.43575966E-03
 -0.57012205E-04 -0.22920988E-03 -0.24467319E-03  0.32125356E-03 -0.30758885E-04
  0.22235326E-03  0.12101146E-04  0.92555388E-05  0.83150610E-05 -0.25321893E-05
 -0.60884247E-05 -0.11208039E-05  0.41686058E-05  0.11148405E-05  0.17337015E-04
 -0.21353929E-05  0.83374341E-05  0.37833472E-03  0.64279175E-04  0.44117228E-04
  0.12748927E-03 -0.11652994E-03 -0.24970401E-03 -0.16518936E-04  0.12332670E-03
  0.12657887E-04 -0.32672941E-05  0.18053699E-04 -0.47553573E-07 -0.11589668E-04
  0.95776848E-05  0.54798967E-05  0.90422615E-06  0.29215672E-04 -0.91882642E-04
 -0.15808699E-03 -0.66790507E-04  0.67060753E-04 -0.48839709E-03  0.40414898E-04
  0.25513208E-04 -0.56777573E-04  0.37440550E-04 -0.11655568E-04 -0.60039584E-05
 -0.14747529E-04  0.70143395E-05  0.11390578E-04 -0.36007405E-05  0.38452105E-05
 -0.58068697E-06 -0.97656771E-05 -0.17068007E-04 -0.11360654E-04 -0.62589651E-05
 -0.78928925E-05 -0.23556248E-05 -0.70635992E-05 -0.46199762E-05  0.45361299E-05
 -0.16369542E-04  0.13512044E-04 -0.25211207E-05 -0.10648213E-04  0.11940709E-04
 -0.26883345E-06  0.87965823E-06  0.13505309E-04  0.24194279E-04 -0.10523802E-04
  0.18275753E-04 -0.11032196E-04  0.16195556E-04 -0.22507864E-05  0.10331703E-04
 -0.13570397E-04 -0.12128966E-04 -0.78358606E-05 -0.43135184E-05  0.17021312E-04
  0.17767280E-04  0.94648879E-05  0.67454699E-05 -0.48010052E-04  0.39981102E-07
  0.71411887E-05 -0.18464479E-06 -0.29319111E-04 -0.98397301E-04  0.28579476E-04
  0.63872345E-05 -0.51526694E-04 -0.40031416E-04  0.95790818E-04  0.10179739E-03
  0.10446713E-03  0.76353147E-04 -0.88549055E-05  0.64621881E-05  0.16832531E-04
  0.26023956E-04 -0.28182147E-04 -0.96024164E-05  0.59111955E-05  0.17198500E-04
 -0.27013947E-04 -0.19885007E-04  0.18755731E-03 -0.47105966E-05  0.13493930E-03
  0.54809590E-03 -0.19338007E-03  0.30431269E-02 -0.74563175E-03  0.36723898E-03

 -0.15281222E-04  0.27548156E-05  0.10989254E-04 -0.12391927E-04  0.21545614E-05
 -0.71866141E-06  0.14598311E-04 -0.40005927E-05 -0.14961285E-04 -0.83972999E-05
 -0.19195299E-04 -0.30948219E-04  0.13417893E-04 -0.28227080E-04  0.17490964E-05
 -0.10387413E-04 -0.51445590E-05  0.68664034E-05  0.37819752E-04 -0.29042488E-03
 -0.28583510E-03 -0.13612290E-03  0.37351088E-04 -0.26713637E-04 -0.43138268E-04
  0.22946635E-03  0.45956646E-03  0.14967291E-04 -0.11452906E-04 -0.56207778E-05
 -0.73158819E-05 -0.90326625E-05 -0.16095451E-04 -0.36571526E-05 -0.40770237E-05
 -0.55346284E-05  0.84576318E-04  0.14145151E-03  0.11006723E-03  0.16999189E-04
 -0.33618990E-04 -0.43025023E-03 -0.47027046E-04  0.31605013E-05  0.33838307E-05
 -0.87713660E-05  0.18981653E-04 -0.29715461E-04 -0.14965556E-04 -0.14936008E-04
  0.79882731E-06 -0.42164916E-05 -0.12360148E-04 -0.12964827E-04  0.27030867E-04
 -0.18676024E-04  0.89762742E-05 -0.19052259E-05  0.86252315E-05 -0.41111364E-04
 -0.82427209E-05  0.88947509E-05 -0.81338026E-05 -0.40349802E-05  0.83402067E-05
  0.61831636E-06 -0.16181896E-04  0.27703958E-04 -0.11517578E-04 -0.20919038E-05
 -0.13450125E-05 -0.10140538E-04 -0.50477584E-05  0.14405483E-05 -0.11576115E-04
  0.45404954E-05 -0.26029530E-04  0.21534021E-04  0.85929505E-05  0.12648365E-05
 -0.41708727E-05  0.46220593E-05 -0.15343908E-04 -0.14582728E-04  0.72291819E-05
 -0.17530371E-04  0.18981750E-04  0.10682133E-04 -0.76425379E-05  0.20811909E-04
 -0.16213066E-03  0.14059434E-03 -0.88988028E-04 -0.89516109E-04  0.16038533E-03
  0.22304998E-03 -0.45254289E-04 -0.75677475E-04  0.72672287E-04  0.94297028E-05
 -0.23315011E-04  0.18183549E-04 -0.12675967E-04  0.12244928E-04 -0.89479421E-05
 -0.15632349E-04  0.14590782E-04 -0.13132542E-04  0.24159296E-03 -0.25648187E-04
  0.19523806E-03 -0.21729548E-04  0.52439918E-04  0.24759299E-03  0.39838444E-04
 -0.96710543E-03 -0.21176650E-03 -0.51336788E-05  0.40817389E-05 -0.14380964E-04
  0.12883609E-04 -0.53175726E-05  0.16417850E-05 -0.13384761E-05  0.51441814E-05
 -0.70985923E-05 -0.78003688E-04  0.18529436E-04  0.57787593E-04  0.35079488E-03
  0.13333838E-04 -0.35240055E-03  0.11181543E-03 -0.43816399E-04  0.11230799E-04
 -0.56520891E-05  0.24014483E-05 -0.14217620E-04 -0.45504471E-05 -0.15750340E-04
  0.11993656E-05 -0.91612976E-05 -0.10039948E-04 -0.73777239E-05  0.24316391E-04
 -0.30125559E-04  0.13738398E-03 -0.20077116E-04  0.18751871E-03  0.20804568E-03
 -0.76155921E-04  0.13170496E-03  0.13345489E-03 -0.10890608E-04  0.15718042E-05
  0.62684436E-05 -0.70249383E-05 -0.51428680E-05 -0.76852080E-05  0.63321398E-05
 -0.60383188E-05 -0.22815772E-05 -0.65469487E-05 -0.32821059E-05 -0.34691495E-04
 -0.56234342E-05  0.38449682E-05  0.10650966E-04 -0.67404100E-05  0.90000998E-05
 -0.10438829E-04  0.57895129E-05 -0.25740149E-04 -0.84875592E-05  0.10281907E-04
 -0.38068514E-04 -0.49513156E-05  0.30594560E-04  0.11910491E-05 -0.27299855E-05
  0.51421371E-06  0.12703723E-04 -0.95706821E-05 -0.15754390E-04  0.33660731E-04
 -0.26541655E-05  0.98523649E-05 -0.16450042E-04  0.14781177E-04  0.41427585E-05
  0.14723616E-04  0.22479887E-05 -0.44141092E-05  0.14084282E-04 -0.24565769E-04
  0.88421411E-05 -0.13809535E-04  0.17969991E-06  0.13368092E-04  0.86223878E-04
  0.11715734E-03  0.20185769E-03  0.57235664E-04 -0.88794781E-03 -0.95039095E-04
 -0.22793919E-05 -0.30878623E-03  0.25023847E-05  0.28850379E-04  0.23752313E-04
  0.11694629E-04 -0.23726944E-04  0.13109073E-04  0.23567632E-04  0.12581534E-04
  0.12207804E-04 -0.14306890E-03 -0.18257780E-03  0.92721781E-04  0.14773661E-03
 -0.16708395E-03  0.41643186E-03 -0.74563175E-03  0.45954070E-02  0.63336287E-03

  0.28986429E-05 -0.14052020E-04  0.37668234E-05 -0.16790904E-04  0.22711569E-04
  0.46871807E-05  0.13525639E-04 -0.65242406E-05 -0.15129938E-04  0.11655267E-04
 -0.16981948E-04 -0.13482337E-04 -0.96646696E-05 -0.19827851E-04 -0.25606033E-06
  0.45357818E-05 -0.46637130E-05 -0.32839548E-05 -0.94161099E-05  0.14280241E-03
  0.14387757E-03 -0.24841734E-03  0.16690456E-03 -0.40270229E-04  0.32629320E-03
  0.11808380E-03 -0.17351712E-03 -0.17962598E-04 -0.43670106E-05 -0.14218385E-04
 -0.57609000E-05  0.51241992E-05 -0.33530780E-05 -0.88396246E-05  0.21327475E-04
  0.13279210E-04 -0.22741828E-03 -0.14083783E-03  0.64631875E-05 -0.17385142E-03
  0.21425840E-03 -0.26979323E-03 -0.51411481E-04 -0.21876162E-03 -0.22114164E-03
  0.16140847E-04 -0.21929593E-04  0.42241948E-06 -0.47402010E-05 -0.36630622E-04
 -0.14043175E-04 -0.61736669E-05 -0.58700773E-05  0.21330676E-04  0.20993369E-04
  0.11154563E-04 -0.41100553E-05 -0.40345955E-04  0.32094938E-04  0.49664099E-05
  0.49787653E-05  0.86526149E-05  0.11506282E-04  0.46195850E-06  0.15985879E-04
  0.93741008E-06 -0.32103917E-04  0.54116838E-05 -0.94880424E-05  0.15558063E-04
  0.52280068E-05  0.65518074E-05  0.33010433E-05  0.24027899E-05 -0.48415779E-05
 -0.99466485E-06 -0.29151693E-05 -0.94910598E-05 -0.55366648E-05 -0.88710163E-05
 -0.17692159E-04 -0.11613398E-04  0.92769761E-05 -0.56989378E-05 -0.63585862E-05
 -0.49183042E-05 -0.27047850E-06  0.32477793E-05 -0.20501099E-05 -0.14663198E-05
  0.96507309E-05  0.78074153E-05  0.26217821E-03 -0.13822551E-03 -0.20088265E-03
  0.41701365E-04  0.29107426E-04  0.11284167E-04 -0.90774090E-04  0.21697735E-04
 -0.76776915E-06 -0.86545331E-05  0.31660466E-05 -0.68992277E-04 -0.26604212E-05
 -0.23961661E-04 -0.10126026E-05 -0.14984123E-04 -0.25216355E-03  0.10762630E-03
  0.36621129E-03 -0.83000145E-04 -0.31176252E-04 -0.20791250E-03  0.56184618E-04
 -0.12093230E-03 -0.14520631E-03  0.15585562E-04 -0.66888584E-05 -0.68784982E-05
 -0.32270358E-04  0.25425742E-04  0.10477643E-05 -0.11552943E-04 -0.42721825E-05
 -0.36121063E-04 -0.16113796E-03  0.39612099E-03 -0.31838144E-03 -0.92555139E-04
  0.48172745E-03 -0.51315801E-04 -0.13837581E-03 -0.16004772E-03 -0.27441594E-05
  0.10557077E-04 -0.41100360E-04 -0.57266498E-05  0.62308771E-05 -0.11509583E-04
 -0.21955123E-04  0.20502171E-05  0.16715093E-04  0.23844529E-04  0.26536889E-04
  0.53203007E-03 -0.28113160E-03  0.59340362E-04 -0.43897330E-03 -0.13854106E-04
  0.90902773E-04 -0.12966280E-03  0.96188129E-04 -0.98087197E-05  0.16750289E-04
  0.74074938E-05 -0.12203653E-04  0.22294450E-04 -0.35340765E-04  0.39975473E-05
  0.51208838E-05  0.71593130E-05  0.27732305E-05  0.70452159E-05 -0.24485837E-04
 -0.21065070E-04  0.36642074E-04 -0.42468756E-04 -0.84064852E-05 -0.71583698E-06
  0.20520147E-04 -0.16490102E-04 -0.92516717E-04 -0.61699477E-04  0.52828179E-04
 -0.10424963E-03 -0.16362107E-06  0.10707904E-05  0.77840806E-05 -0.81837362E-04
  0.10610310E-04  0.11023080E-04  0.22120707E-04 -0.23057267E-04 -0.17832289E-04
 -0.96507295E-05 -0.57665924E-05 -0.13377334E-04 -0.30720296E-04  0.14360924E-04
  0.94389261E-05  0.73932323E-05 -0.14547524E-04 -0.34811686E-04 -0.25396833E-04
 -0.48980770E-04 -0.97539830E-06 -0.59597130E-05  0.83224603E-04  0.25696411E-03
 -0.12680233E-03  0.66302644E-04 -0.21116559E-03  0.17051437E-03 -0.17139765E-03
 -0.38983223E-03  0.25531561E-03  0.27433843E-04  0.77358977E-04  0.28872108E-04
  0.29394125E-04 -0.67261150E-04 -0.99974102E-05 -0.20701821E-04 -0.58363172E-05
 -0.37630674E-04 -0.30591318E-03 -0.35944331E-04 -0.39190850E-03 -0.14797563E-02
 -0.84748346E-03 -0.12875191E-02  0.36723898E-03  0.63336287E-03  0.50216037E-02


;

# ===========
# Reflections
# ===========

_diffrn_radiation_wavelength        0.710730

_shelx_F_calc_maximum               155.395577

_reflns_d_resolution_high           3.610254
_reflns_d_resolution_low            0.801354
_reflns_limit_h_max                 4
_reflns_limit_h_min                 -4
_reflns_limit_k_max                 23
_reflns_limit_k_min                 1
_reflns_limit_l_max                 16
_reflns_limit_l_min                 1
_reflns_number_gt                   904
_reflns_number_total                904
_reflns_threshold_expression        'F>0 & F/u(F)>3.0 & |F_calc|>10^-3'

_reflns_special_details
;
* Specify symmetry and Friedel pair averaging *

. Only reflections which satisfy the threshold expression
  are listed below, and only they are considered observed,
  thus the *_gt, *_all, & *_total data are always the same
;

# ============
# Bond lengths
# ============

loop_
 _geom_bond_atom_site_label_1
 _geom_bond_site_symmetry_1
 _geom_bond_atom_site_label_2
 _geom_bond_site_symmetry_2
 _geom_bond_distance
 _geom_bond_publ_flag
   O4  .   C4  .  1.208(3)  yes
   O9  .   C9  .  1.289(4)  yes
  O10  .  C10  .  1.223(5)  yes
   O9  .   H9  .   1.22(4)  yes
  O10  .   H9  .   1.27(4)  yes
   C1  .   C2  .  1.401(5)   yes
   C1  .  C9A  .  1.442(4)   yes
   C1  .  C10  .  1.412(5)   yes
   C2  .   C3  .  1.425(5)   yes
   C3  .  C3A  .  1.393(5)   yes
  C3A  .   C4  .  1.464(4)   yes
  C3A  .  C9A  .  1.426(4)   yes
   C4  .  C4A  .  1.496(5)   yes
  C4A  .   C5  .  1.385(5)   yes
  C4A  .  C8A  .  1.412(4)   yes
   C5  .   C6  .  1.379(6)   yes
   C6  .   C7  .  1.390(5)   yes
   C7  .   C8  .  1.387(5)   yes
   C8  .  C8A  .  1.386(5)   yes
  C8A  .   C9  .  1.468(5)   yes
   C9  .  C9A  .  1.388(4)   yes
   C2  .   H2  .    1.10(5)  yes
   C3  .   H3  .    1.16(2)  yes
   C5  .   H5  .    1.03(3)  yes
   C6  .   H6  .    1.02(4)  yes
   C7  .   H7  .    1.00(4)  yes
   C8  .   H8  .    1.15(3)  yes
  C10  .  H10  .    0.97(5)  yes

# ===========
# Bond Angles
# ===========

loop_
 _geom_angle_atom_site_label_1
 _geom_angle_site_symmetry_1
 _geom_angle_atom_site_label_2
 _geom_angle_site_symmetry_2
 _geom_angle_atom_site_label_3
 _geom_angle_site_symmetry_3
 _geom_angle
 _geom_angle_publ_flag
   O4  .   C4  .  C3A  .        122.8(3)  yes
   O4  .   C4  .  C4A  .        121.8(3)  yes
   O9  .   C9  .  C8A  .        117.7(3)  yes
   O9  .   C9  .  C9A  .        122.8(3)  yes
  O10  .  C10  .   C1  .        124.9(4)  yes
  O10  .  C10  .  H10  .          114(3)  yes
   O9  .   H9  .  O10  .          174(3)  yes
   C9  .   O9  .   H9  .       107.8(18)  yes
  C10  .  O10  .   H9  .       109.6(18)  yes
   C1  .   C2  .   C3  .        109.1(4)  yes
   C1  .  C9A  .  C3A  .        106.7(3)  yes
   C1  .  C9A  .   C9  .        131.4(3)  yes
   C2  .   C1  .  C9A  .        107.4(3)  yes
   C2  .   C1  .  C10  .        125.4(4)  yes
   C2  .   C3  .  C3A  .        107.5(3)  yes
   C3  .  C3A  .   C4  .        129.1(3)  yes
   C3  .  C3A  .  C9A  .        109.3(3)  yes
  C3A  .   C4  .  C4A  .        115.4(3)  yes
  C3A  .  C9A  .   C9  .        121.9(3)  yes
   C4  .  C3A  .  C9A  .        121.7(3)  yes
   C4  .  C4A  .   C5  .        119.5(3)  yes
   C4  .  C4A  .  C8A  .        121.6(3)  yes
  C4A  .   C5  .   C6  .        121.1(4)  yes
  C4A  .  C8A  .   C8  .        119.9(3)  yes
  C4A  .  C8A  .   C9  .        120.0(3)  yes
   C5  .  C4A  .  C8A  .        119.0(3)  yes
   C5  .   C6  .   C7  .        119.8(4)  yes
   C6  .   C7  .   C8  .        120.2(4)  yes
   C7  .   C8  .  C8A  .        120.1(4)  yes
   C8  .  C8A  .   C9  .        120.1(3)  yes
  C8A  .   C9  .  C9A  .        119.5(3)  yes
  C9A  .   C1  .  C10  .        127.1(3)  yes
   C1  .   C2  .   H2  .       125.4(18)  yes
   C1  .  C10  .  H10  .        120(3)    yes
   C2  .   C3  .   H3  .       122.8(19)  yes
   C3  .   C2  .   H2  .       125.4(18)  yes
  C3A  .   C3  .   H3  .       129.6(19)  yes
  C4A  .   C5  .   H5  .       122.6(19)  yes
   C5  .   C6  .   H6  .        120(2)    yes
   C6  .   C5  .   H5  .       115.8(19)  yes
   C6  .   C7  .   H7  .        120(2)    yes
   C7  .   C6  .   H6  .        121(2)    yes
   C7  .   C8  .   H8  .       117.7(14)  yes
   C8  .   C7  .   H7  .        120(2)    yes
  C8A  .   C8  .   H8  .       122.1(14)  yes
