# ========================
# Tonto generated CIF file
# ========================

# NOTE: This is an incomplete CIF file
# Manually edit it to pass checkCIF

data_my_job

_audit_creation_date                2018-4-20
_audit_creation_method              'Tonto 17.12.12 github v. daf061c'

# ============
# QCr software
# ============

_QCr_software                       'Tonto'
_QCr_software_version               '17.12.12 v. daf061c'
_QCr_software_platform              'Linux-4.4.0-98-generic'
_QCr_software_build_date            '2017-12-12 13:16'
_QCr_software_website               'https://github.com/dylan-jayatilaka/tonto'

# ===========
# Publication
# ===========

_publ_contact_author
;
    Prof. Dr. Sir Tonto Magnifico
;
_publ_contact_author_email          'tonto.magnifico@gmail.com'
_publ_contact_author_phone          '+61 8 6488 3138'
_publ_requested_journal             'IUCrJ'
_publ_section_title
;
   'Hirshfeld atom-refinement (HAR) for my_job'
   'X-ray wavefunction refinement (XWR) for my_job'
   Tonto Magnifico, IUCrJ (XXXX)
;

loop_
    _publ_author_name
    'Tonto Magnifico'

_publ_author_address
;
    Prof. Dr. Sir Tonto Magnifico
    1 El Camino Ciberespacio
    Tierra Austral del Espiritu Santo
;

# ========
# Chemical
# ========

_chemical_name_common               my_job
_chemical_formula_sum               'C5 H10 N2 O3'
_chemical_formula_moiety            'C5 H10 N2 O3'
_chemical_formula_weight            146.1471
_chemical_compound_source           'see text'
_chemical_absolute_configuration    unk

# ==========
# QCr method
# ==========

_QCr_calc_method                    'Hartree-Fock'
_QCr_calc_spinorbital_kind          'restricted'
_QCr_calc_gaussian_basis_set        'custom?'
_QCr_calc_gaussian_basis_set_kind   'cartesian'
_QCr_calc_basis_max_l               '2'

_QCr_calc_unit                      'See _atom_site_* in tonto.cif2'
_QCr_calc_unit_spin_multiplicity    1
_QCr_calc_unit_n_electrons          78
_QCr_calc_unit_n_alpha_electrons    39
_QCr_calc_unit_n_beta_electrons     39

# =======
# Crystal
# =======

_exptl_crystal_description          ?
_exptl_crystal_colour               ?
_exptl_crystal_size_max             ?
_exptl_crystal_size_mid             ?
_exptl_crystal_size_min             ?
_exptl_crystal_density_diffrn       ?

# ==============
# Absortion data
# ==============

_exptl_absorpt_coefficient_mu       ?
_exptl_absorpt_correction_type      'none'
_exptl_absorpt_process_details      ?
_exptl_absorpt_correction_T_min     ?
_exptl_absorpt_correction_T_max     ?

# ========
# Symmetry
# ========

_symmetry_cell_setting              Orthorhombic
_symmetry_space_group_name_H-M      'p 21 21 21'
_symmetry_space_group_name_Hall     'p 2ac 2ab'
_symmetry_Int_Tables_number         '19'

loop_
    _symmetry_equiv_pos_as_xyz
'+x, +y, +z'
'-x+1/2, -y, +z+1/2'
'+x+1/2, -y+1/2, -z'
'-x, +y+1/2, -z+1/2'

# =========
# Unit cell
# =========

_cell_measurement_temperature  ?
_cell_measurement_reflns_used  ?
_cell_measurement_theta_min    ?
_cell_measurement_theta_max    ?

_cell_length_a                   7.529000(0)
_cell_length_b                   9.516000(0)
_cell_length_c                   9.688000(0)
_cell_angle_alpha               90.000000(0)
_cell_angle_beta                90.000000(0)
_cell_angle_gamma               90.000000(0)
_cell_volume                   694.106099(0)

_cell_formula_units_Z               4.000000

_atom_sites_solution_hydrogens      HAR

# ===============
# Refinement data
# ===============

_refine_ls_kind                     'Hirshfeld atom refinement (HAR)'
_refine_ls_method_description
;
   S.C. Capelli, H.-B. Burgi, B. Dittrich, S.Grabowsky
   and Dylan Jayatilaka, IUCrJ (2014). 1, 361-379
;
_refine_QCr_Psi_constraint          'none'

_refine_ls_SVD_threshold            0.1E-02
_refine_ls_coordinate_system        cartesian
_refine_ls_structure_factor_coeff   F
_refine_ls_matrix_type              full
_refine_ls_R_factor_gt              0.0206
_refine_ls_R_factor_all             0.0206
_refine_ls_wR_factor_gt             0.0167
_refine_ls_wR_factor_all            0.0167
_refine_ls_R_Fsqd_factor            0.0382
_refine_ls_goodness_of_fit_gt       1.5517
_refine_ls_goodness_of_fit_all      1.5517
_refine_ls_number_reflns            2357
_refine_ls_number_parameters        181
_refine_ls_number_restraints        0
_refine_ls_number_constraints       0
_refine_ls_hydrogen_treatment       refall
_refine_ls_weighting_scheme         sigma
_refine_ls_weighting_details        'w=1/\s(F)'
_refine_ls_shift/su_conv_tol        0.0100
_refine_ls_shift/su_max             0.0000
_refine_ls_shift/su_max_mean        0.0000
_refine_ls_shift/su_max_par         ''
_refine_ls_extinction_method        none

_refine_diff_density_max            0.1242
_refine_diff_density_min            -0.1373
_refine_diff_density_rms            0.0296
_refine_diff_density_max_atom       0.0510
_refine_diff_density_max_atom_tag   H10
_refine_diff_density_min_atom       -0.0653
_refine_diff_density_min_atom_tag   H3
_refine_diff_density_rms_atom       0.0312

_refine_special_details
;
. If constraints were applied they are defined by zero
  eigenvalues of the least-squares hessian, see the
  value of _refine_ls_SVD_threshold
;

# ======================
# Fractional coordinates
# ======================

loop_
_atom_site_label
_atom_site_fract_x
_atom_site_fract_y
_atom_site_fract_z
_atom_site_U_iso_or_equiv
_atom_site_adp_type
_atom_site_occupancy
_atom_site_disorder_group
   N1  0.73515(6)   0.75616(6)   0.40077(4)  0.0224(2)    Uani  1.000000  0
   H1  0.8586(11)   0.8005(12)   0.4077(9)   0.047(6)     Uani  1.000000  0
   H2  0.7341(14)   0.6828(13)   0.3259(10)  0.057(7)     Uani  1.000000  0
   H3  0.7066(13)   0.7028(11)   0.4895(10)  0.049(6)     Uani  1.000000  0
   C1  0.60132(7)   0.86701(6)   0.38140(4)  0.0234(2)    Uani  1.000000  0
   H4  0.4714(10)   0.8149(12)   0.3594(8)   0.052(5)     Uani  1.000000  0
   H5  0.6365(13)   0.9339(11)   0.2925(7)   0.062(6)     Uani  1.000000  0
   C2  0.59073(6)   0.95458(6)   0.51317(4)  0.0192(2)    Uani  1.000000  0
   O1  0.70942(5)   0.94978(5)   0.59921(3)  0.02943(19)  Uani  1.000000  0
   N2  0.44576(5)   1.03490(6)   0.52480(3)  0.02126(19)  Uani  1.000000  0
   H6  0.3517(10)   1.0403(11)   0.4457(7)   0.034(5)     Uani  1.000000  0
   C3  0.42806(7)   1.13310(6)   0.63826(4)  0.0216(2)    Uani  1.000000  0
   H7  0.5568(11)   1.1826(11)   0.6555(6)   0.049(5)     Uani  1.000000  0
   C4  0.28951(14)  1.24386(10)  0.60179(7)  0.0461(4)    Uani  1.000000  0
   H8  0.1664(16)   1.1920(13)   0.5823(11)  0.077(8)     Uani  1.000000  0
   H9  0.324(2)     1.2947(15)   0.5107(12)  0.111(11)    Uani  1.000000  0
  H10  0.2699(19)   1.3172(13)   0.6865(10)  0.091(8)     Uani  1.000000  0
   C5  0.37406(6)   1.06548(6)   0.77594(4)  0.0192(2)    Uani  1.000000  0
   O2  0.26993(5)   0.96369(5)   0.77715(3)  0.0323(2)    Uani  1.000000  0
   O3  0.42958(5)   1.12527(5)   0.88270(3)  0.02907(19)  Uani  1.000000  0

# ====
# ADPs
# ====

loop_
_atom_site_aniso_label
_atom_site_aniso_U_11
_atom_site_aniso_U_22
_atom_site_aniso_U_33
_atom_site_aniso_U_12
_atom_site_aniso_U_13
_atom_site_aniso_U_23
   N1  0.0269(2)    0.0194(3)  0.02090(17)   0.00288(19)   0.00451(16)  -0.00135(17)
   H1  0.037(5)     0.058(8)   0.047(5)      0.003(6)     -0.001(4)     -0.006(5)
   H2  0.057(7)     0.074(9)   0.041(5)      0.020(6)      0.008(4)      0.004(6)
   H3  0.055(6)     0.032(6)   0.060(6)      0.007(6)     -0.001(5)      0.005(5)
   C1  0.0295(2)    0.0243(3)  0.01654(16)   0.0045(2)    -0.00024(16)  -0.00224(18)
   H4  0.037(5)     0.068(7)   0.052(4)     -0.002(5)     -0.010(3)     -0.027(5)
   H5  0.103(8)     0.055(7)   0.029(4)      0.023(6)      0.004(4)      0.011(4)
   C2  0.0234(2)    0.0191(3)  0.01516(14)   0.0005(2)    -0.00026(13)  -0.00079(16)
   O1  0.03284(18)  0.0307(2)  0.02473(14)   0.00722(18)  -0.00868(13)  -0.00627(16)
   N2  0.02442(19)  0.0229(3)  0.01644(13)   0.00192(19)   0.00028(14)  -0.00286(15)
   H6  0.035(5)     0.034(6)   0.033(4)      0.003(5)     -0.014(3)      0.002(4)
   C3  0.0285(2)    0.0187(3)  0.01750(16)   0.0012(2)     0.00134(16)  -0.00158(16)
   H7  0.057(5)     0.053(7)   0.037(3)     -0.004(5)      0.012(4)     -0.008(4)
   C4  0.0723(5)    0.0350(5)  0.0312(3)     0.0290(4)    -0.0036(3)    -0.0008(3)
   H8  0.084(8)     0.068(9)   0.078(7)      0.026(8)     -0.017(6)      0.004(7)
   H9  0.193(15)    0.074(10)  0.065(7)      0.083(11)    -0.012(7)      0.009(7)
  H10  0.149(11)    0.078(9)   0.047(5)      0.061(9)      0.014(6)     -0.013(6)
   C5  0.02090(19)  0.0196(3)  0.01697(16)   0.00036(18)   0.00164(13)  -0.00472(16)
   O2  0.0414(2)    0.0322(3)  0.02329(14)  -0.0141(2)     0.00874(14)  -0.00738(16)
   O3  0.03286(18)  0.0357(3)  0.01867(13)  -0.00750(18)   0.00235(12)  -0.00792(15)

# NOTE: Cartesian 9Nx9N covariance matrix in BOHR units
# The order of the variables (per atom) is as follows:
# . Elements 1-3: positions: x y x
# . Elements 4-9: 2nd order ADPs:
#      U 11 22 33 12 13 23
# . Elements 10-19: 3rd order ADPs (if refined):
#      U 111 222 333 112 113 122 223 133 233 123
# . Elements 20-34: 4th order ADPs (if refined):
#      U 1112 1113 1222 2223 1333 2333
#        1122 1133 2233 1123 1223 1233
# . Matrix is output in (fortran) column order

_asym_unit_covariance_matrix
;
  0.83510241E-06  0.13728822E-06  0.51406729E-07  0.88481884E-07 -0.73492206E-08
 -0.56030114E-07  0.34485378E-07  0.23686034E-07  0.30562462E-07  0.53757578E-05
  0.12511053E-05 -0.37826624E-06 -0.49995921E-05  0.22579191E-05  0.42672402E-05
 -0.51370210E-05 -0.31294823E-06 -0.77284609E-06 -0.81296946E-06 -0.21624559E-06
  0.73295090E-06 -0.97284894E-06  0.13789597E-05 -0.19643912E-06 -0.14204293E-05
 -0.19082257E-05 -0.39284693E-07 -0.42214537E-07 -0.24854232E-06 -0.25717405E-05
 -0.18149870E-05  0.23659381E-06  0.19518848E-05  0.10839710E-06  0.35771757E-06
 -0.15484294E-05  0.51521843E-07 -0.24385530E-07 -0.39060146E-07  0.32627024E-07
  0.10208151E-07  0.16109778E-07 -0.84257115E-08  0.22479320E-07 -0.18965003E-07
 -0.53967350E-06 -0.11360727E-05  0.78093803E-06 -0.79236526E-06  0.72451922E-06
  0.33470251E-06 -0.41047349E-06 -0.17155691E-06 -0.27354564E-06 -0.17912364E-06
 -0.43976195E-06  0.42840852E-07  0.66836324E-06 -0.53037594E-06 -0.36769379E-06
 -0.29200188E-06  0.28029777E-06  0.29875931E-06  0.34130085E-07  0.13895148E-07
  0.23686543E-07  0.31797217E-07 -0.13818493E-07  0.64885514E-08 -0.15027029E-07
  0.56503462E-08 -0.27475140E-08  0.18525180E-07  0.17256325E-07 -0.15430542E-07
  0.65178331E-08  0.22457973E-07  0.13737729E-07 -0.13978702E-07 -0.44474757E-08
  0.10873609E-07 -0.75642483E-08 -0.34529858E-08  0.70172816E-08  0.15807387E-07
  0.80761459E-08  0.18892296E-07  0.17809064E-07 -0.21308737E-07  0.10483167E-07
  0.29659386E-06 -0.10450791E-06 -0.22521154E-06  0.18954905E-06  0.29484885E-06
  0.65021642E-07 -0.57619875E-06 -0.28347576E-06 -0.15752920E-06  0.48161301E-07
  0.24302605E-07 -0.26481325E-07  0.22759747E-07 -0.76388477E-08  0.29724843E-08
  0.39622191E-08 -0.75026499E-08  0.13810783E-07 -0.65409730E-06  0.56392436E-07
  0.37154899E-06 -0.66981616E-06  0.45581143E-06  0.63080546E-07 -0.10724506E-05
  0.23655601E-06  0.33864244E-07  0.19502256E-07  0.58693961E-07  0.30065399E-08
  0.62026081E-07 -0.56494669E-07  0.32194544E-07  0.33550175E-07 -0.19494716E-08
 -0.85690906E-08  0.37597383E-06 -0.36744440E-06  0.58499377E-06 -0.84741609E-06
 -0.11558513E-06 -0.59546208E-06 -0.12598949E-05  0.20225476E-07  0.32724106E-06
 -0.10596404E-05 -0.92367033E-06 -0.16678318E-05  0.13060224E-05  0.10468514E-05
 -0.11245701E-06  0.11142242E-05  0.92695801E-07  0.49083082E-06  0.23013119E-06
 -0.37862680E-06 -0.26268599E-06 -0.46256529E-06  0.15629331E-06  0.15988933E-06
  0.11952795E-05  0.10929623E-05  0.16280091E-06 -0.20423956E-07 -0.14451341E-07
 -0.24650359E-07 -0.37815831E-08 -0.39161907E-08  0.15376195E-07 -0.29495310E-07
 -0.17418181E-07 -0.17374425E-07 -0.21162537E-07  0.33390512E-08 -0.15200558E-08
 -0.65576715E-08  0.51946133E-07  0.15630573E-07 -0.51242073E-08  0.23883919E-08
 -0.17617465E-07 -0.20404364E-07 -0.30522514E-07  0.20354244E-09  0.24381112E-07
  0.36017548E-07  0.14822266E-09 -0.18101952E-07  0.15538478E-07 -0.18286636E-07

  0.13728822E-06  0.10412110E-05  0.25031088E-07  0.98742565E-07 -0.10563214E-06
 -0.44030991E-07  0.88128665E-07  0.14081094E-07  0.33252121E-07  0.35627347E-05
  0.14525686E-06  0.16995975E-06 -0.39692595E-05  0.39758446E-05  0.22493525E-05
 -0.85566695E-07 -0.27998994E-06 -0.59537476E-06  0.29320293E-06  0.84960444E-06
  0.27863088E-05 -0.28466752E-05 -0.22184232E-05  0.31319757E-05 -0.87404404E-07
 -0.41107088E-07  0.30300682E-05  0.33075896E-06  0.37672930E-06 -0.23419770E-05
 -0.88020012E-06 -0.28144730E-05  0.32028471E-05  0.77320381E-06 -0.16464490E-05
 -0.57472264E-06 -0.47700227E-07 -0.91888020E-07 -0.17975083E-07 -0.27968069E-07
  0.84360073E-08  0.17751885E-07  0.35139865E-07 -0.19605337E-08 -0.20788226E-07
 -0.72452600E-06  0.43088586E-06 -0.65516478E-06 -0.34640772E-06  0.23046337E-06
 -0.44009177E-06 -0.24431779E-06  0.44026915E-06  0.39950841E-06  0.25999424E-06
  0.12611150E-05 -0.10624617E-05 -0.56264492E-06 -0.22395457E-06  0.35029039E-06
 -0.14424289E-05  0.90674822E-07 -0.22104069E-06 -0.91499621E-08 -0.58270689E-07
 -0.10091479E-07  0.95976678E-08 -0.18475625E-07 -0.11396956E-07 -0.13326521E-07
  0.42733315E-08  0.39621092E-07 -0.29122871E-08  0.32090392E-07 -0.59154471E-09
 -0.73068869E-08 -0.17440917E-07 -0.76504726E-08  0.20549096E-07 -0.21804924E-07
 -0.17261458E-07  0.22144222E-07 -0.27778688E-07  0.19162376E-07  0.23972598E-08
 -0.38362655E-07 -0.74913769E-08 -0.19569691E-07  0.12105267E-07 -0.52663598E-09
 -0.15208158E-06  0.96548386E-07  0.41775706E-06  0.21660128E-06 -0.79386248E-06
  0.87357839E-07 -0.71668372E-07 -0.83412231E-07 -0.77039105E-06  0.42538765E-07
 -0.76424849E-07  0.34505375E-08  0.91388439E-09  0.52421581E-07 -0.71408320E-08
  0.17084706E-07  0.10582674E-07  0.16463608E-07 -0.20820919E-06  0.31253494E-06
 -0.26510591E-06  0.60542219E-06 -0.31753070E-06  0.12837390E-06 -0.54861937E-06
  0.36225720E-06 -0.16343311E-06 -0.15546212E-07  0.14595477E-06 -0.38776440E-08
 -0.10496150E-06 -0.13246619E-06  0.46764725E-07 -0.23984697E-06 -0.82534179E-08
 -0.52672406E-07  0.47783808E-06 -0.13055069E-05  0.11977699E-05 -0.12074473E-06
 -0.40008760E-05  0.26898057E-06 -0.27401619E-05 -0.31026804E-06 -0.70241631E-06
 -0.10268216E-05 -0.86169404E-06 -0.61746790E-06  0.28736901E-05  0.30199560E-05
 -0.20064972E-06  0.41757159E-05  0.52295043E-07  0.33759321E-06 -0.78139001E-06
 -0.38884361E-06  0.29137584E-06  0.21555549E-05  0.19140565E-05 -0.29981319E-06
  0.16282050E-05 -0.22001715E-06 -0.87207402E-06 -0.47224224E-08 -0.10976293E-07
 -0.21996671E-08 -0.34716268E-07  0.15987515E-07 -0.49389998E-08 -0.12424905E-07
 -0.80129688E-09 -0.29178160E-07  0.26284081E-07 -0.38306956E-07 -0.22003967E-07
 -0.69368851E-08 -0.23064840E-07 -0.11587633E-07  0.27014144E-07 -0.21188476E-08
  0.17432483E-07  0.32563937E-08  0.20660486E-07 -0.55366949E-08 -0.88150469E-08
  0.20560556E-07 -0.14924709E-07 -0.31046635E-08 -0.12370581E-07  0.96991268E-08

  0.51406729E-07  0.25031088E-07  0.63594681E-06  0.23426863E-07 -0.24608787E-07
 -0.66158306E-08  0.57344157E-09  0.15610076E-07 -0.57472567E-07  0.78920837E-06
  0.19918331E-06 -0.14904527E-05 -0.11124710E-05  0.57283965E-06  0.12277308E-05
 -0.11655055E-05  0.12815375E-05  0.10685507E-05 -0.22531629E-06  0.33076048E-05
  0.38453709E-05 -0.32712704E-05  0.97409843E-06  0.10869708E-05 -0.12224648E-05
 -0.42057160E-06  0.32393346E-05 -0.14082473E-05 -0.20418454E-05  0.25137233E-05
  0.18779404E-05  0.10911427E-05 -0.25002380E-05 -0.86732813E-06  0.67157457E-06
  0.26623458E-05 -0.15322927E-07 -0.59500719E-08  0.62919184E-08 -0.18737589E-07
  0.16071815E-07 -0.14903521E-08 -0.10235427E-08  0.70141906E-08  0.57887201E-08
 -0.13232988E-06 -0.65763349E-06 -0.71027765E-07  0.46123298E-06 -0.25469722E-06
 -0.85200126E-06  0.28571694E-06  0.24706881E-06  0.12536072E-05  0.71160453E-07
 -0.68639091E-06  0.64192020E-06  0.67372558E-06  0.57959870E-06 -0.81912734E-07
  0.32250903E-06 -0.11733074E-06 -0.97676939E-07 -0.15060116E-07 -0.81338569E-08
  0.14827700E-08 -0.32495819E-08  0.14812378E-07 -0.97670840E-08  0.55664907E-08
 -0.11140502E-07 -0.19244772E-07  0.23808903E-07  0.13937036E-07 -0.21486505E-08
 -0.12938413E-07  0.10997314E-09  0.79531144E-08  0.56318561E-08  0.89865333E-08
  0.19775850E-07 -0.57313926E-08 -0.17260767E-07  0.92881133E-09  0.11501686E-07
 -0.24494975E-07 -0.15987344E-08  0.25339740E-07 -0.18884794E-07  0.80543633E-08
  0.28434459E-06  0.39245105E-06  0.56510041E-06  0.42838798E-06  0.18287210E-06
  0.19457496E-06 -0.98543576E-07  0.53522384E-07  0.56364423E-06  0.13482334E-07
  0.36891898E-07  0.14966231E-07 -0.52718297E-08 -0.11931768E-07 -0.87359630E-09
  0.28943718E-08  0.84230194E-08  0.20404937E-07  0.18498298E-06 -0.51756498E-06
  0.33870744E-06 -0.40086607E-07 -0.14351342E-06 -0.21573744E-06  0.20769398E-06
 -0.42826376E-07  0.36564291E-06 -0.17281820E-07  0.36984424E-07  0.89667764E-07
 -0.12264615E-07  0.42174442E-07 -0.15180606E-07 -0.98348830E-08 -0.75501436E-08
  0.81475493E-09  0.20748536E-06 -0.16715272E-06  0.30697359E-06  0.22087665E-07
 -0.69745283E-07  0.23965912E-06 -0.14749810E-06  0.74512726E-06  0.26607278E-06
 -0.59240429E-06 -0.85133813E-06 -0.21982089E-06  0.14533816E-06  0.15025122E-05
 -0.54737866E-06  0.81825698E-06  0.63331744E-07 -0.68775360E-06  0.56544780E-06
  0.38366144E-06  0.35103127E-06 -0.16917758E-06  0.41241249E-06  0.22297270E-06
 -0.19370730E-06  0.99195338E-06  0.11586738E-06  0.34614035E-07  0.12201722E-08
  0.25956428E-07  0.14961813E-07 -0.18418647E-07  0.98876284E-08  0.64891882E-08
  0.40523769E-08 -0.53436839E-08  0.72792248E-08  0.14883958E-07 -0.10837142E-07
  0.27926768E-08  0.34113042E-08 -0.42753446E-08 -0.59870841E-08  0.86873960E-08
  0.14733052E-07 -0.21699991E-07 -0.80936989E-08 -0.10276480E-07 -0.58876153E-08
  0.79021774E-08  0.73551679E-08  0.34277609E-08  0.37431902E-08 -0.31422439E-08

  0.88481884E-07  0.98742565E-07  0.23426863E-07  0.64016614E-06 -0.16946002E-06
 -0.13223212E-06  0.75353878E-07  0.45767057E-07  0.12093839E-07  0.32192308E-05
  0.24490363E-05  0.29663485E-06 -0.14594198E-05 -0.25563529E-07  0.31244916E-05
 -0.41884162E-05 -0.52128236E-06 -0.84206925E-06 -0.84540363E-06  0.14000306E-05
  0.18403817E-05 -0.27340155E-05  0.79006884E-06  0.92510594E-06  0.11648446E-06
  0.90191903E-06  0.20927384E-05  0.32880673E-06  0.62138232E-06 -0.19060741E-05
 -0.31015461E-06 -0.19383763E-06  0.65370079E-06  0.21781309E-06 -0.17635486E-05
 -0.89460063E-06 -0.18397155E-07 -0.20586530E-08 -0.41759246E-08 -0.60866376E-07
  0.66314414E-08  0.27386847E-07  0.12903521E-07  0.12550671E-07 -0.27705988E-08
 -0.79384945E-06 -0.40825580E-07  0.16871481E-06 -0.60492146E-06 -0.16311192E-06
  0.86709209E-07  0.23837321E-06  0.17982545E-06  0.81310681E-06  0.15520125E-06
 -0.33193139E-07 -0.29998898E-06 -0.18009106E-05  0.84210672E-06  0.53097009E-06
  0.64380211E-06  0.38544485E-07  0.23840351E-06 -0.24641568E-07 -0.89010646E-08
 -0.42767933E-08  0.90265399E-08  0.15772999E-07 -0.54535390E-09  0.56666734E-09
 -0.14928268E-07  0.49991951E-08 -0.38466003E-07  0.22311615E-08  0.30667746E-07
  0.31751338E-07  0.27854501E-07  0.14996412E-07  0.17246895E-07  0.10746129E-08
 -0.16297814E-07  0.22553134E-07 -0.96959064E-08  0.79849516E-08 -0.32810146E-07
  0.29840472E-07  0.26181007E-07  0.29904123E-08  0.90690517E-08  0.81834377E-08
 -0.72577163E-06  0.51741584E-08  0.30454301E-07  0.49619470E-06  0.13051720E-06
 -0.90953091E-07 -0.40731750E-06 -0.55551215E-06  0.25179423E-06 -0.48367205E-07
 -0.26120882E-07  0.11935096E-07 -0.51874549E-07  0.20426263E-07  0.38036980E-07
 -0.24951893E-07 -0.25048799E-07 -0.30332318E-08 -0.84580218E-06 -0.20748313E-07
  0.52026446E-06  0.24942657E-06  0.41013286E-06 -0.40181491E-06  0.67546954E-06
  0.21536010E-06  0.10726587E-07 -0.10495869E-06  0.14378117E-07  0.17702278E-07
  0.59156507E-07  0.65947444E-08  0.49636597E-07  0.35378994E-08 -0.22689431E-07
 -0.46056406E-07  0.12514904E-05 -0.54626460E-06 -0.20534413E-07  0.15862596E-05
 -0.91656522E-06  0.18524309E-06 -0.64547844E-06  0.42363193E-06 -0.44202457E-06
 -0.54341492E-06 -0.85059363E-06 -0.51951091E-06  0.98021878E-06  0.44042238E-06
  0.14301953E-06  0.91177303E-06  0.17085773E-06  0.15250341E-06  0.47460587E-06
 -0.69756394E-06  0.33942259E-06 -0.29412526E-05  0.68296402E-06  0.37601019E-06
 -0.31628916E-06  0.13538587E-06 -0.16517590E-06  0.49657036E-08  0.63799375E-08
  0.25234012E-07 -0.53305328E-07  0.18215025E-07  0.31865780E-07  0.61931439E-08
  0.10081516E-07  0.12258875E-07  0.32084231E-07  0.17101460E-07 -0.96961237E-08
  0.12744547E-07  0.54604448E-07  0.14125530E-07 -0.15826192E-07 -0.10428805E-07
  0.14600933E-07 -0.53856983E-08 -0.50328215E-08  0.78143108E-08 -0.31861966E-07
  0.42977541E-07  0.18986370E-07  0.20775526E-08 -0.37896025E-10  0.12552723E-07

 -0.73492206E-08 -0.10563214E-06 -0.24608787E-07 -0.16946002E-06  0.82433109E-06
 -0.13571961E-06  0.36849452E-07 -0.62648619E-08 -0.14799248E-07 -0.31941080E-06
 -0.29137894E-05 -0.10949391E-07 -0.49517578E-06  0.16779685E-06 -0.59842918E-06
  0.23851786E-05 -0.34473592E-07  0.10074734E-06  0.16419073E-06  0.89091922E-06
 -0.10820185E-05  0.69322186E-06  0.37614535E-05 -0.27383162E-05  0.25318404E-06
 -0.30328641E-06  0.91025818E-06  0.31988901E-06  0.72199810E-06  0.69563372E-06
  0.25206076E-07  0.21155662E-05 -0.22564951E-05  0.35488872E-06  0.79571490E-06
 -0.21019314E-05 -0.79436994E-08 -0.14149788E-07  0.30112493E-07  0.35476783E-07
  0.55758853E-07 -0.40908501E-08  0.11433472E-07  0.10806136E-08 -0.30854019E-07
 -0.69249950E-07 -0.57684895E-06 -0.85723166E-07  0.21208017E-06 -0.72161702E-06
  0.23906585E-06 -0.39120754E-06 -0.97173881E-07 -0.89774621E-06  0.16135712E-06
 -0.10386821E-05  0.18974281E-06 -0.49492751E-07 -0.13631966E-05  0.38401459E-07
 -0.34048390E-06 -0.20997743E-06 -0.83299794E-06  0.30686756E-07 -0.23807720E-07
  0.92850741E-09  0.23640474E-07 -0.38177862E-07  0.20359917E-07  0.16131682E-07
  0.42234093E-08  0.19402248E-08 -0.22443868E-08  0.12917736E-07 -0.12840103E-07
  0.28255900E-07  0.25623135E-08  0.17346264E-07  0.12319441E-07  0.36998389E-08
  0.26194392E-07 -0.41165246E-08  0.17270793E-07 -0.43010847E-08  0.33888522E-07
 -0.23585778E-07  0.27866189E-07 -0.15567130E-08 -0.59630891E-08 -0.66042723E-08
 -0.95137097E-07 -0.33682489E-06  0.71881600E-07 -0.53889772E-07  0.50959377E-06
 -0.40217237E-07 -0.60246215E-07 -0.17644073E-06 -0.27555924E-06  0.36981595E-08
  0.69357179E-07  0.13804452E-08  0.31058270E-07 -0.24871595E-07  0.75135425E-08
  0.25950491E-08  0.11691302E-07  0.80460837E-08  0.41294224E-06  0.27757989E-06
 -0.15898058E-06 -0.61720023E-07 -0.69586097E-06  0.46125621E-06 -0.87324745E-06
  0.14171730E-06  0.40349773E-07  0.32868462E-07 -0.10427247E-07 -0.11240910E-07
  0.51189134E-09 -0.11381836E-06  0.45933041E-07  0.59124848E-11  0.54747959E-09
  0.21443480E-07 -0.17158369E-06 -0.55830358E-06 -0.21858259E-06 -0.98476453E-07
  0.45800899E-06 -0.67731479E-06 -0.30196612E-07 -0.21288272E-06  0.48208332E-06
  0.20878825E-06  0.37351710E-06 -0.13288131E-06 -0.87241657E-06  0.33237332E-06
  0.43055243E-06  0.52670665E-06  0.89760032E-07  0.29292163E-06 -0.10691528E-06
 -0.14714799E-06 -0.10125579E-07  0.13576444E-05 -0.14183295E-06 -0.35127193E-06
  0.52476680E-06  0.17727048E-06 -0.47244386E-06  0.82546981E-08  0.27006237E-07
 -0.46072391E-08  0.31842457E-07 -0.70236170E-07  0.27387328E-07 -0.24944841E-09
 -0.82936671E-08 -0.11627299E-07 -0.77438231E-08 -0.13422053E-07  0.15210405E-07
  0.23591197E-07  0.52076173E-07  0.11182761E-07 -0.54431137E-08  0.93885917E-08
 -0.16735814E-08  0.11169839E-07 -0.23813026E-07 -0.72736410E-08  0.39081995E-07
 -0.29513384E-07  0.31723741E-07  0.14377213E-07  0.14075634E-07 -0.10870664E-07

 -0.56030114E-07 -0.44030991E-07 -0.66158306E-08 -0.13223212E-06 -0.13571961E-06
  0.36260871E-06 -0.31855020E-07  0.25572920E-07 -0.14885420E-07 -0.16228133E-05
 -0.69785245E-06 -0.49632371E-06  0.14879658E-05 -0.42322176E-06 -0.13309632E-05
  0.12981722E-05  0.80734975E-06  0.81243657E-06  0.36719687E-06 -0.22602581E-05
 -0.78985871E-06  0.98032750E-06 -0.26535617E-05  0.15913346E-05 -0.12443889E-06
 -0.62360263E-07 -0.18409574E-05 -0.90161515E-06 -0.90699017E-06  0.17596482E-05
  0.79251069E-06 -0.79833208E-06  0.17466920E-05 -0.49355952E-06  0.12339046E-05
  0.23285060E-05  0.11767425E-07  0.10212461E-07 -0.31748613E-07  0.29223919E-07
 -0.25610190E-08  0.47608293E-08 -0.35017000E-08 -0.60150187E-08  0.68056890E-08
  0.24785020E-06 -0.80422012E-07  0.22374339E-06 -0.10154597E-06  0.31995816E-06
  0.62087671E-06  0.18829370E-06 -0.24498476E-06 -0.53374545E-06 -0.28859801E-06
  0.32549780E-08  0.39767923E-06 -0.47901694E-07  0.53942924E-06 -0.65184649E-06
 -0.15835049E-06 -0.17219454E-08  0.62179276E-06  0.84641755E-09  0.25783990E-07
  0.12840390E-07  0.92587000E-08  0.22084846E-07  0.15953067E-07  0.27152563E-08
 -0.22109299E-08 -0.22945307E-09  0.86888954E-08 -0.34137815E-08 -0.52060697E-08
  0.20687850E-07  0.19417217E-07  0.90029323E-08 -0.11766854E-08  0.11285957E-07
  0.75327343E-08 -0.56907335E-09 -0.18272136E-08 -0.12591290E-08  0.12719600E-07
  0.25611334E-07  0.38548466E-08 -0.12089955E-07  0.60213522E-08 -0.60163632E-08
  0.86001669E-07 -0.11749169E-06 -0.49617025E-07  0.25880416E-07 -0.98955734E-07
 -0.23268710E-06  0.15527666E-06 -0.23133398E-07 -0.53513790E-07  0.26223821E-07
  0.20361191E-07  0.20185220E-07  0.32259385E-07  0.22389702E-07 -0.11739403E-07
  0.10024125E-07 -0.72721929E-08  0.47779916E-08  0.36831600E-06 -0.17376388E-06
  0.20517234E-06 -0.25791966E-06  0.11954981E-06 -0.65812299E-07 -0.51895059E-06
 -0.33416603E-06 -0.21947009E-07 -0.40418814E-07 -0.50457704E-07 -0.27184722E-07
  0.63251285E-07  0.66967511E-07 -0.72514329E-07  0.48085066E-07 -0.26946607E-09
  0.14101594E-07 -0.83403205E-06  0.59368361E-06 -0.73026013E-06 -0.70436280E-06
  0.16781360E-05  0.68824155E-06 -0.15679358E-06 -0.17166942E-06  0.32309603E-06
  0.41720636E-06  0.23274840E-06  0.76266643E-06 -0.12257702E-05 -0.49849802E-06
 -0.24640901E-06 -0.74690983E-06 -0.68685058E-06 -0.88089650E-07  0.36881032E-06
  0.25922908E-06 -0.29638205E-06 -0.85706145E-06 -0.42822187E-06  0.15877354E-06
 -0.74129748E-06  0.12680870E-06 -0.15249894E-06  0.10935729E-07 -0.11301337E-07
  0.14538266E-07  0.26844335E-07  0.31442339E-07  0.11349952E-07  0.56734173E-08
  0.26446393E-07  0.29111030E-08 -0.15758685E-07 -0.47532852E-08 -0.26068869E-08
  0.27709319E-07 -0.48153821E-08  0.12493987E-07 -0.68576188E-09  0.10376364E-08
 -0.16869540E-07 -0.14978889E-08 -0.20703715E-08  0.15737128E-07  0.22655681E-07
  0.35367160E-07 -0.76520978E-08 -0.34696449E-08 -0.28464306E-08 -0.49272716E-08

  0.34485378E-07  0.88128665E-07  0.57344157E-09  0.75353878E-07  0.36849452E-07
 -0.31855020E-07  0.44940057E-06  0.12848841E-07  0.24418463E-07  0.28603556E-05
 -0.58140006E-06  0.36205789E-06 -0.28453633E-05  0.27543534E-05  0.12429384E-05
 -0.15481050E-06 -0.39435085E-06 -0.24083160E-06  0.67421036E-06  0.68254632E-06
  0.83378173E-06 -0.36786703E-06  0.39762215E-06  0.42539478E-06  0.18217054E-05
  0.16698330E-05  0.21723130E-06  0.22256801E-06  0.68768157E-07 -0.42665637E-06
  0.10181296E-05  0.66493490E-06 -0.97369308E-06 -0.17967157E-06 -0.12362635E-05
  0.45285936E-07 -0.17392669E-07 -0.25615698E-07 -0.51492229E-08 -0.77084007E-08
 -0.73579170E-08  0.20064558E-08  0.20364347E-07 -0.98916434E-08 -0.24769860E-08
 -0.48580185E-06  0.73265123E-06 -0.13869479E-06  0.15948534E-06 -0.33829625E-06
  0.46632131E-08  0.23424323E-06 -0.10711291E-06 -0.26333216E-06 -0.77763652E-07
 -0.29111701E-06  0.11243096E-06  0.74681259E-07  0.68942029E-07  0.30876238E-07
 -0.34456089E-07  0.41273671E-06 -0.44901120E-07 -0.12546183E-07  0.17016055E-07
 -0.79459312E-08  0.12649147E-07  0.10787196E-07  0.14102771E-08 -0.12224625E-07
 -0.15600741E-08 -0.17932514E-08 -0.12993920E-08 -0.14379948E-07  0.12475646E-07
  0.38618285E-08 -0.87587150E-08  0.11881090E-07  0.41270986E-07  0.28123362E-08
 -0.11490374E-07  0.33734796E-07 -0.31138284E-08  0.14949888E-07  0.27722517E-08
  0.12429212E-07  0.86435385E-09  0.15426001E-07  0.93911947E-08 -0.58580504E-08
  0.15432738E-06 -0.37169485E-06  0.13581853E-06  0.39446505E-06 -0.33744644E-06
 -0.44026583E-08 -0.10810358E-06 -0.18123032E-06 -0.19843024E-06  0.25155360E-07
  0.93205696E-08  0.90158271E-08  0.39741741E-08 -0.27478735E-08  0.61684512E-08
  0.91456434E-08 -0.71091204E-08  0.51984932E-08 -0.22968217E-06  0.51972232E-06
 -0.73288279E-07 -0.21182238E-06  0.36584435E-07  0.14324567E-06  0.85058608E-07
  0.13375128E-07 -0.28444471E-08 -0.14156885E-07  0.43960927E-07 -0.15374907E-08
 -0.17997252E-07 -0.38870000E-07  0.30444753E-07 -0.12779523E-06 -0.24212269E-08
 -0.17707765E-07  0.74874792E-06 -0.41473146E-06  0.10319038E-07 -0.38351675E-06
 -0.95993555E-06 -0.31699307E-06 -0.74358623E-06  0.41419410E-06 -0.15145703E-06
 -0.17755537E-06 -0.33309073E-06 -0.98454176E-06  0.76054388E-06 -0.74949046E-06
  0.43756421E-07 -0.13552919E-06  0.36720633E-06  0.25412548E-06  0.62961794E-06
 -0.52042954E-06  0.38685949E-06 -0.11385615E-05 -0.10075009E-06  0.12406308E-06
 -0.74080564E-06  0.24071709E-06 -0.25594180E-06 -0.49077389E-09 -0.83516282E-08
 -0.11689074E-08  0.37338228E-08  0.39587921E-08 -0.94983256E-09 -0.42370407E-08
 -0.37368884E-08 -0.16872713E-07  0.36816680E-08  0.49520420E-08 -0.67086869E-09
  0.22152838E-07  0.23203784E-07  0.13470136E-07  0.32311242E-07 -0.17194089E-08
 -0.16153348E-07 -0.85123910E-08 -0.35007531E-07  0.29868767E-08  0.16388601E-07
  0.13197667E-07  0.18698805E-08 -0.23092139E-07  0.77638440E-08  0.26887085E-07

  0.23686034E-07  0.14081094E-07  0.15610076E-07  0.45767057E-07 -0.62648619E-08
  0.25572920E-07  0.12848841E-07  0.33758599E-06  0.22221529E-07  0.11247682E-05
  0.51614930E-06 -0.55085536E-06 -0.70345248E-06 -0.43528695E-06  0.71700321E-06
 -0.62683360E-06  0.20221723E-05  0.81308058E-06  0.17108035E-05 -0.28589468E-06
 -0.47234029E-07 -0.32945279E-07  0.31181867E-06  0.22404291E-06  0.19819278E-05
  0.21000182E-05  0.86863336E-06 -0.86714318E-06  0.58250297E-06 -0.14488094E-05
 -0.13673144E-05 -0.32514328E-07  0.80535602E-06 -0.74938341E-06  0.13229692E-05
 -0.82459938E-06 -0.23916045E-07  0.18588140E-07 -0.20868680E-07 -0.95664828E-09
 -0.10061390E-08  0.64751827E-08  0.14770839E-07  0.26685132E-07  0.51126781E-08
 -0.15014945E-06 -0.64098372E-07  0.20992265E-06 -0.34152600E-06 -0.24973020E-06
  0.41128736E-06 -0.33165142E-06  0.61925043E-07  0.16751608E-06  0.31043768E-06
 -0.14180279E-06 -0.13192967E-06 -0.14053529E-06  0.25152357E-06 -0.63369933E-06
 -0.44531261E-06  0.13947771E-07  0.11369003E-06 -0.34468427E-08  0.12204013E-07
  0.13163738E-07  0.11778764E-07  0.22916464E-08 -0.70516920E-08  0.57094506E-08
 -0.11772416E-07 -0.41655792E-08  0.37804260E-08 -0.10138618E-07 -0.33283685E-08
 -0.45608411E-09 -0.37428231E-09  0.27278562E-08  0.17533028E-08  0.11068345E-07
 -0.98662783E-08  0.56526306E-08  0.24014495E-07 -0.12101207E-07  0.45508633E-09
  0.42210827E-08  0.61493652E-08  0.23688875E-08 -0.26631388E-08 -0.58057555E-08
  0.19428557E-07  0.16482591E-06 -0.38374629E-06  0.21120074E-07  0.11688086E-06
  0.95990581E-08 -0.11292491E-06 -0.27882511E-06 -0.62617545E-07  0.21234953E-07
  0.16761100E-07  0.21675590E-07 -0.64413163E-08  0.24548361E-08  0.97671920E-09
  0.12771753E-07 -0.71242032E-08 -0.22121274E-09  0.35141510E-06  0.52330569E-07
  0.20902105E-06  0.15436694E-06  0.85777605E-07 -0.10180484E-06  0.94241546E-08
  0.19070295E-06 -0.15424419E-06 -0.41620789E-07 -0.78670665E-08 -0.65775412E-07
  0.37414318E-07 -0.82437795E-09 -0.17321515E-07  0.26714317E-07 -0.52953621E-07
 -0.50346333E-07 -0.39779931E-06 -0.61448132E-06 -0.21643890E-06 -0.19939001E-06
  0.22509663E-06 -0.39400850E-06 -0.26804680E-06 -0.29235095E-06  0.35165233E-06
 -0.38591989E-06  0.21816455E-06 -0.56691352E-06  0.31715076E-06  0.70943072E-06
 -0.62282028E-06  0.36369733E-06 -0.81288554E-06  0.21322558E-06  0.92854717E-07
 -0.30992588E-06 -0.29869463E-06 -0.72962419E-06  0.19918723E-06  0.34821307E-06
 -0.83607767E-06 -0.11471310E-06 -0.19910449E-06 -0.53593009E-08  0.15959089E-07
 -0.14093269E-07  0.13090447E-07  0.50501575E-08  0.20124060E-08  0.34624960E-08
 -0.37330948E-08 -0.69194762E-08  0.16606842E-07 -0.64391762E-08  0.87309347E-09
  0.26336900E-08  0.11287709E-07  0.92929559E-08 -0.11287395E-07 -0.63640604E-08
 -0.19880313E-08  0.74280845E-08  0.93968833E-09  0.14777915E-07  0.16609932E-07
 -0.41380826E-08 -0.32848908E-08  0.31406364E-08  0.81564470E-08 -0.62516651E-08

  0.30562462E-07  0.33252121E-07 -0.57472567E-07  0.12093839E-07 -0.14799248E-07
 -0.14885420E-07  0.24418463E-07  0.22221529E-07  0.38462382E-06  0.30247211E-06
  0.47510355E-06 -0.85064687E-06 -0.60857341E-06  0.10128354E-05  0.45320952E-06
  0.14058500E-06  0.10825909E-05 -0.83852337E-06 -0.57176895E-06 -0.12716731E-05
 -0.29472702E-05  0.18539547E-05  0.14643282E-05 -0.85359251E-06  0.45712197E-06
  0.23603675E-07 -0.21408262E-05  0.64389700E-06  0.53866318E-06 -0.28658226E-05
 -0.10785671E-05 -0.16931493E-05  0.22483369E-05 -0.23545192E-06 -0.17980382E-05
 -0.65150758E-06  0.18946879E-07  0.33811607E-07 -0.24647549E-07  0.52116906E-08
  0.33210408E-07 -0.32746849E-09  0.22379474E-07 -0.17516210E-07 -0.32322151E-07
  0.16864819E-06 -0.32604204E-06  0.28556311E-06  0.27984250E-06 -0.20574769E-06
 -0.30443966E-06 -0.26134041E-07 -0.24618474E-06  0.82146047E-07 -0.48380003E-06
  0.67358261E-06 -0.60932230E-06  0.51600132E-06 -0.42631049E-06  0.15857920E-06
  0.78000162E-07  0.47833815E-06  0.56906865E-07  0.89921598E-08  0.14157973E-07
 -0.77834525E-08  0.31251114E-08  0.12139306E-07 -0.61166251E-08  0.50483258E-08
  0.63927086E-08  0.90332813E-08 -0.86958741E-09 -0.84845086E-08 -0.15950092E-07
  0.79207623E-08  0.16130634E-08 -0.68610465E-08  0.12615997E-07 -0.70966952E-08
 -0.69698558E-08  0.85206845E-08  0.16885093E-07  0.79107277E-08  0.33669066E-08
 -0.15990270E-07  0.31487211E-08  0.11576414E-08  0.13904469E-07  0.12402740E-07
 -0.82668132E-07  0.11691106E-06 -0.21756663E-06  0.17271990E-06  0.50521000E-07
  0.29656216E-07  0.18006716E-06 -0.32152282E-06  0.21450909E-07  0.54802653E-08
  0.30137734E-08 -0.15073401E-07 -0.59588573E-08 -0.11170802E-07  0.12688017E-07
 -0.22962402E-08  0.32440038E-08  0.27896158E-08 -0.42282574E-06 -0.21360540E-06
 -0.22638867E-07  0.13961600E-06  0.23769063E-06 -0.27320651E-06 -0.80497627E-07
  0.32268637E-07  0.37391059E-06 -0.17733163E-07  0.18956107E-07  0.38179290E-07
  0.76850221E-08  0.34704062E-07 -0.62517546E-08  0.31600630E-07 -0.64514855E-07
 -0.79284057E-07 -0.49592873E-06  0.21307504E-06 -0.12463149E-06 -0.21213537E-07
 -0.13411832E-06 -0.43124217E-06 -0.18212559E-06  0.34173434E-06 -0.51917480E-06
 -0.81508427E-06 -0.46655520E-06 -0.30646284E-06 -0.90872337E-06  0.99767893E-06
 -0.10282919E-07  0.25079707E-06  0.10905882E-05  0.68505151E-06 -0.69371764E-06
 -0.28203216E-06 -0.12116043E-05  0.36190774E-06 -0.75300507E-06  0.10983838E-06
 -0.36344626E-06  0.56969248E-06  0.92345594E-06 -0.90648486E-08 -0.35005241E-07
  0.22337149E-07  0.29681667E-08 -0.12146484E-07  0.22895091E-08  0.15870742E-08
 -0.88225386E-08 -0.11619994E-07 -0.30656296E-08  0.27530184E-07 -0.10062892E-07
  0.95590308E-09 -0.26978917E-08  0.92802607E-08  0.51514421E-08 -0.12462474E-08
 -0.49541218E-08 -0.62595370E-08  0.17029612E-07  0.10300498E-07 -0.22240812E-08
  0.27604280E-07  0.21374012E-07 -0.30615544E-08  0.91476880E-08 -0.19929804E-07

  0.53757578E-05  0.35627347E-05  0.78920837E-06  0.32192308E-05 -0.31941080E-06
 -0.16228133E-05  0.28603556E-05  0.11247682E-05  0.30247211E-06  0.26272161E-03
  0.14303613E-04  0.70610105E-06 -0.74358385E-04  0.33262099E-04  0.53447439E-04
 -0.53074071E-04  0.15096598E-04  0.46515056E-06  0.29092145E-04  0.22345755E-04
  0.43749605E-04 -0.40434019E-04  0.63730238E-05  0.10440574E-04  0.68580697E-05
  0.29614684E-04  0.37385324E-04 -0.23333721E-05 -0.37646324E-05 -0.27504411E-04
  0.22728219E-04 -0.88487497E-05  0.11897965E-05  0.56535752E-05 -0.32099671E-04
 -0.26902015E-04 -0.12730837E-06 -0.46503736E-06 -0.58795729E-06 -0.30096065E-08
  0.17280180E-07  0.21841785E-06  0.44530346E-06  0.31844225E-08 -0.13969379E-06
 -0.25842280E-04 -0.13855378E-04 -0.46861126E-05  0.17699076E-04 -0.25425500E-04
  0.95983226E-05  0.73759541E-05 -0.14197695E-04  0.66269214E-07  0.10697533E-04
 -0.64755898E-05  0.93066814E-05 -0.21301570E-04  0.21355976E-05  0.19487483E-06
 -0.36057170E-05  0.12162522E-04  0.78934990E-05 -0.11113056E-05  0.38406737E-06
  0.22755499E-06  0.14273522E-06  0.67460204E-07  0.19347914E-06 -0.13614705E-06
 -0.19454507E-06  0.70513590E-07  0.12654745E-06 -0.24008717E-06  0.69866030E-06
  0.43903755E-06  0.43221631E-07  0.40351551E-06  0.22977622E-06 -0.13576550E-06
 -0.33627652E-06  0.42910181E-06 -0.46614354E-07 -0.15624906E-07  0.82428205E-06
 -0.19464795E-06  0.17327323E-06 -0.25771474E-06  0.25507289E-06  0.28897260E-06
  0.16757724E-04  0.77924544E-06  0.17275033E-06  0.59125986E-05  0.16366370E-04
 -0.50867329E-05 -0.64498721E-05 -0.53195389E-05  0.53385730E-05  0.35297988E-06
 -0.99368300E-06  0.95027002E-06  0.43416471E-08  0.13428859E-06  0.17601241E-06
  0.45932883E-06  0.11599289E-06  0.91065365E-07  0.16128846E-04  0.18184610E-04
 -0.65984022E-05  0.34210740E-05  0.54773100E-05  0.24269736E-05 -0.94508280E-05
  0.91000989E-05  0.12867411E-04  0.80435293E-06  0.34953733E-06 -0.12173800E-06
 -0.29211954E-05 -0.11600593E-06  0.90662487E-06 -0.22540947E-05 -0.72180739E-07
 -0.39859316E-06  0.26113831E-04  0.20960405E-06  0.57908137E-05  0.14512843E-04
 -0.26880295E-04 -0.14642795E-04  0.23599462E-04  0.74958989E-05  0.92438404E-05
 -0.24616394E-04 -0.54633524E-05 -0.24544045E-04  0.50184073E-04 -0.25615247E-04
 -0.14347316E-04 -0.34228096E-04 -0.17234692E-04 -0.92391056E-05 -0.26562716E-04
 -0.15105242E-04  0.12375145E-04 -0.29107788E-04 -0.21996234E-04  0.53067435E-05
 -0.40058929E-04  0.15852123E-05 -0.52474645E-05  0.50158795E-06  0.34203377E-06
 -0.24372773E-06  0.10759912E-06 -0.27592771E-06  0.10357563E-06 -0.27610048E-07
 -0.15407627E-06  0.47406776E-07 -0.71005778E-06  0.77634403E-06 -0.35117706E-06
 -0.24116616E-06  0.95177395E-06  0.26576342E-06  0.30244640E-06 -0.32009340E-06
 -0.49828096E-06  0.64893438E-06 -0.81016303E-06  0.23960549E-06  0.31195509E-06
  0.42936174E-06 -0.15781044E-06  0.23990737E-06 -0.25084488E-06  0.62484159E-06

  0.12511053E-05  0.14525686E-06  0.19918331E-06  0.24490363E-05 -0.29137894E-05
 -0.69785245E-06 -0.58140006E-06  0.51614930E-06  0.47510355E-06  0.14303613E-04
  0.47999075E-03 -0.61540019E-05 -0.39863259E-05  0.29781339E-04  0.61631041E-05
 -0.49180900E-04 -0.54994004E-05  0.27736838E-04 -0.29116472E-05 -0.27046734E-04
  0.93750149E-05 -0.68939596E-05 -0.57722868E-05 -0.15531871E-05 -0.34484766E-04
  0.20926242E-04  0.18883865E-04  0.75899261E-07 -0.22034039E-06  0.53018120E-05
 -0.10320363E-04  0.15394587E-04  0.18947750E-04  0.27276693E-04 -0.33777158E-04
 -0.36098360E-05 -0.34601621E-06  0.18304551E-05 -0.63650466E-06 -0.48769409E-06
  0.17223211E-05 -0.33918470E-06  0.36272604E-06  0.31963045E-06  0.62689706E-06
 -0.14473680E-04 -0.25502133E-04  0.13980067E-04 -0.61531088E-05 -0.36566865E-04
  0.46933034E-05 -0.17071898E-04  0.12155412E-04  0.99038357E-05 -0.21823341E-05
  0.22202282E-04  0.17962104E-05  0.49750353E-04  0.83355706E-05 -0.26080779E-05
  0.14521889E-04  0.13425148E-04 -0.21913161E-04 -0.42999647E-06  0.24183333E-06
  0.14790406E-06 -0.38018912E-06  0.14303236E-05 -0.34983500E-06 -0.13924728E-06
 -0.10456077E-06  0.21377366E-07  0.70455291E-06  0.89995061E-07  0.44170279E-06
 -0.33788143E-09 -0.13441203E-05 -0.51703369E-07 -0.36511532E-06 -0.22188002E-06
 -0.31991822E-06 -0.14361155E-06 -0.42548823E-06  0.19018979E-06 -0.13526413E-06
  0.39768709E-06 -0.25943229E-06  0.42639633E-06 -0.48055129E-06 -0.14795767E-06
 -0.13790513E-05  0.39429782E-04  0.20764783E-04  0.74305714E-05  0.77859813E-05
  0.36284894E-05  0.28906634E-05 -0.30080213E-07 -0.30740334E-04 -0.34940765E-07
 -0.11337096E-05 -0.92140373E-07 -0.10102940E-05 -0.81231821E-07  0.36582272E-06
  0.43115891E-06 -0.29628057E-06 -0.42745533E-06 -0.71133254E-05 -0.65953696E-04
 -0.85699360E-05  0.27509443E-05 -0.22203419E-04 -0.52803642E-05  0.41018459E-04
  0.14991086E-05 -0.92730999E-05 -0.13770354E-05 -0.22189248E-05  0.62570065E-06
  0.10592844E-05  0.24622625E-06 -0.12020760E-05 -0.17562350E-06  0.52722571E-06
 -0.69319964E-06  0.11581890E-04 -0.33286867E-04 -0.13950332E-04 -0.14571972E-04
 -0.22962699E-04  0.11807290E-05  0.83749595E-05  0.17431921E-04  0.89298054E-05
 -0.60549410E-04 -0.66102464E-05  0.64150765E-05  0.49886515E-04  0.27939057E-04
 -0.27751056E-04 -0.10834244E-04  0.58833782E-05 -0.39727409E-04  0.45170774E-04
 -0.63247812E-04  0.17408021E-04  0.51912902E-05  0.62632159E-04  0.31296967E-05
 -0.67620726E-05 -0.26764945E-05  0.90177147E-05  0.38011708E-06  0.10573461E-05
 -0.48134849E-06 -0.14448291E-06  0.53632784E-06 -0.50799111E-07 -0.13803650E-06
  0.24460131E-06  0.16877336E-06  0.33809490E-06 -0.83169914E-06  0.31909374E-06
  0.14112524E-06 -0.30663673E-06 -0.32068933E-07 -0.10151569E-05  0.39387785E-07
  0.37370427E-06 -0.77513581E-06  0.19859105E-07 -0.17956750E-06 -0.27179993E-07
 -0.25413051E-06  0.29115784E-06 -0.55635710E-06 -0.15267097E-06 -0.84300304E-09

 -0.37826624E-06  0.16995975E-06 -0.14904527E-05  0.29663485E-06 -0.10949391E-07
 -0.49632371E-06  0.36205789E-06 -0.55085536E-06 -0.85064687E-06  0.70610105E-06
 -0.61540019E-05  0.27826704E-03 -0.72086845E-05 -0.14127990E-04 -0.26676100E-04
 -0.54154989E-05 -0.25770360E-04  0.22244574E-04  0.24963490E-04 -0.12824603E-04
 -0.23963792E-04  0.65441370E-05  0.24752541E-04 -0.69026573E-05  0.29950577E-04
  0.44311752E-04  0.37776150E-04 -0.19783156E-04 -0.15040940E-04 -0.58861987E-04
 -0.44485526E-05 -0.12686656E-04 -0.18265422E-05  0.10660779E-04  0.35122407E-04
  0.13316072E-05  0.97289593E-07 -0.64953808E-06  0.97092912E-07 -0.23421436E-06
  0.45044742E-06  0.11909139E-06 -0.47288730E-06 -0.17946977E-06  0.75776194E-06
 -0.28658785E-05  0.99246892E-05 -0.14716538E-04  0.18558900E-04 -0.27103128E-04
 -0.59205606E-05 -0.43243933E-05  0.67657127E-05  0.26606256E-04  0.23726100E-04
 -0.18255305E-04 -0.14916110E-04 -0.37378036E-05  0.54282010E-05 -0.11436599E-04
 -0.13916648E-04  0.19514595E-04 -0.61102946E-05  0.12332295E-06  0.16871375E-06
 -0.16772153E-06 -0.40220607E-06 -0.36118774E-06  0.44615631E-06  0.87729264E-07
  0.92173953E-07  0.19056981E-06 -0.25186284E-06 -0.25848440E-06  0.97781634E-06
  0.28151012E-08 -0.41274985E-06 -0.55392287E-06 -0.36864768E-06  0.21547578E-06
 -0.33120188E-06  0.17442883E-06  0.31444629E-06 -0.15160889E-08 -0.22946505E-06
  0.20382885E-06 -0.84827903E-07  0.11219374E-06  0.53973416E-06 -0.14863572E-06
 -0.33584218E-05 -0.56942018E-05 -0.85101360E-05  0.22348349E-05 -0.97902513E-05
 -0.39817063E-05 -0.24718736E-04 -0.38279789E-06 -0.12791893E-05 -0.12246833E-05
 -0.53925287E-06  0.42126725E-06  0.57073603E-06 -0.42244695E-06  0.23007025E-08
 -0.81271378E-07 -0.16795099E-06 -0.64740824E-07 -0.47859280E-05  0.36120321E-05
  0.22135629E-04  0.41828977E-05 -0.16476920E-04  0.11211579E-04 -0.48300691E-05
 -0.38646778E-05  0.62287284E-05  0.10753470E-05  0.28849420E-06 -0.11702530E-05
 -0.67052400E-06  0.28140951E-06  0.56301392E-06  0.19786177E-06  0.15383532E-05
 -0.50141083E-06  0.14748061E-04  0.18147814E-04  0.48672736E-04  0.28491255E-05
  0.14928580E-04  0.15357773E-04 -0.48717429E-06 -0.23824552E-04  0.22308397E-04
 -0.20140005E-05 -0.74244342E-05 -0.97354730E-04  0.89476861E-04 -0.67477526E-06
 -0.27881634E-04  0.15763230E-04 -0.24021080E-04  0.20709054E-05  0.67801325E-04
  0.30167068E-04 -0.23385373E-05 -0.23951359E-04 -0.26789251E-05  0.35166010E-04
  0.14217012E-04 -0.34639733E-04 -0.29260159E-04 -0.17486827E-06  0.61861810E-06
  0.48995075E-06 -0.17182294E-06 -0.14418159E-06  0.65974745E-07 -0.34257774E-06
  0.19464759E-07  0.20909374E-07  0.94732682E-08 -0.18164253E-06  0.12230553E-05
 -0.33656024E-06  0.28264387E-07  0.50046080E-06  0.26169714E-06  0.39080935E-06
  0.58270850E-06  0.70041971E-07  0.65210088E-06 -0.89429097E-06  0.46651240E-07
 -0.18041427E-07 -0.20933435E-06 -0.23390788E-06 -0.33849641E-06 -0.31074132E-06

 -0.49995921E-05 -0.39692595E-05 -0.11124710E-05 -0.14594198E-05 -0.49517578E-06
  0.14879658E-05 -0.28453633E-05 -0.70345248E-06 -0.60857341E-06 -0.74358385E-04
 -0.39863259E-05 -0.72086845E-05  0.35047867E-03 -0.15313308E-03 -0.12061723E-03
  0.62956095E-04  0.16540765E-06  0.16533304E-04  0.30957008E-04  0.40959290E-05
 -0.28370658E-04  0.78613619E-04 -0.38006687E-04 -0.17485146E-04  0.14179847E-04
 -0.10607375E-04 -0.17825059E-04  0.85366713E-06  0.33289476E-05  0.32226201E-04
  0.14605449E-04 -0.12669077E-04 -0.99513711E-05 -0.13638063E-04  0.23624005E-04
  0.15248173E-04  0.88140865E-06 -0.30092235E-06  0.33482056E-06 -0.62777196E-06
 -0.18202927E-06 -0.31188704E-06  0.12102081E-06  0.54086778E-06  0.47553965E-06
  0.22572750E-04  0.24061945E-04  0.15712339E-05 -0.22816687E-04 -0.48682615E-05
 -0.22442864E-06 -0.51968085E-07  0.63465149E-05 -0.26527457E-05 -0.11785995E-04
  0.10687222E-04 -0.38736556E-05  0.49431715E-04 -0.19577222E-04 -0.18434653E-06
  0.90404186E-05  0.68684712E-05 -0.35444175E-05  0.35112433E-06  0.45234403E-06
  0.34127024E-06 -0.10547498E-05  0.51528832E-07  0.74172708E-07 -0.25006478E-06
 -0.46968643E-06 -0.17438853E-06  0.37286820E-06  0.54211175E-06 -0.21380866E-06
 -0.81950169E-07 -0.22800595E-06 -0.35419199E-06  0.21497779E-06 -0.91260842E-07
 -0.11953694E-06 -0.59887253E-06  0.25028496E-06 -0.45923164E-06 -0.22896073E-06
 -0.21206859E-06 -0.49294110E-06 -0.53335059E-06 -0.25586804E-06 -0.32477895E-06
  0.14014200E-04 -0.92751084E-06  0.29419343E-05  0.44318967E-06 -0.81274137E-05
 -0.61427960E-06  0.17727442E-04  0.25502463E-05 -0.74961874E-05 -0.19285667E-05
 -0.76976247E-06  0.62099989E-07 -0.15850953E-06 -0.18953510E-06 -0.29832811E-07
 -0.37868873E-06  0.49339087E-06 -0.30413538E-06 -0.94085666E-06 -0.16171324E-04
 -0.14641499E-04  0.74641184E-05  0.51467932E-06 -0.33852270E-06  0.60269928E-05
 -0.10534741E-04  0.82926932E-05  0.45997751E-05  0.38565907E-06  0.15169081E-06
 -0.26469985E-06  0.72358451E-07 -0.10014123E-05 -0.52895285E-06 -0.17933898E-06
  0.16954561E-06  0.73934587E-07  0.79917379E-05  0.37465202E-05  0.38961876E-04
 -0.21721851E-04  0.99955220E-05  0.13795998E-04 -0.95703314E-06  0.22907862E-05
  0.13899752E-04  0.26452696E-04  0.31578413E-04 -0.75080596E-04  0.15418516E-04
 -0.10797053E-04  0.95425761E-05  0.12666323E-04  0.47561508E-05 -0.28635346E-04
  0.23022640E-06 -0.12339702E-04  0.68890545E-04 -0.22175009E-04 -0.14300771E-04
 -0.16796863E-04 -0.11708344E-04  0.71164290E-05  0.13820671E-05 -0.62054636E-06
  0.25783329E-06 -0.90022222E-06  0.30843407E-06 -0.49786275E-06  0.32151791E-06
 -0.98700692E-07  0.26830321E-06 -0.10454220E-05  0.95381461E-07 -0.20523762E-06
 -0.47328105E-06 -0.80637742E-06 -0.20241216E-06  0.15276231E-06  0.18451887E-06
  0.83591370E-07  0.32788219E-06  0.52995615E-06  0.32127358E-07 -0.12807777E-05
 -0.47602499E-06  0.82196479E-07  0.50382889E-07 -0.49049735E-07 -0.19345598E-06

  0.22579191E-05  0.39758446E-05  0.57283965E-06 -0.25563529E-07  0.16779685E-06
 -0.42322176E-06  0.27543534E-05 -0.43528695E-06  0.10128354E-05  0.33262099E-04
  0.29781339E-04 -0.14127990E-04 -0.15313308E-03  0.72599159E-03 -0.48867600E-04
 -0.35751677E-05  0.25147356E-05 -0.42886036E-04 -0.29658827E-04 -0.50952228E-04
  0.58608441E-05 -0.50330850E-04 -0.98355521E-05  0.59837873E-05 -0.31130570E-04
 -0.89820490E-05  0.22758447E-05 -0.33207854E-04  0.40017245E-04  0.24806751E-04
 -0.22831777E-04  0.11118520E-04  0.17672324E-04  0.23825064E-04 -0.41099969E-04
  0.22618739E-04  0.61707174E-07  0.11325173E-05  0.32851141E-06  0.31583496E-06
  0.18534914E-05 -0.37453448E-06  0.79719632E-06 -0.44444501E-06 -0.55308297E-06
  0.95069201E-05 -0.99168794E-05 -0.15795961E-04 -0.15649116E-04  0.95947905E-04
  0.55081003E-05  0.35836362E-05 -0.17798284E-04 -0.16819604E-04  0.35189438E-06
  0.25837106E-04  0.10799517E-04 -0.35818702E-04  0.57333171E-04 -0.19238499E-05
 -0.26877747E-04 -0.13560802E-04 -0.68285381E-06 -0.38788668E-06 -0.97846730E-06
 -0.10382088E-06  0.33979598E-06 -0.16212453E-06  0.29127298E-06 -0.77867464E-06
  0.51842897E-06 -0.40528261E-06 -0.52456862E-07 -0.82663906E-06 -0.23704418E-06
  0.19388236E-06  0.50749207E-06  0.53453658E-07  0.10754831E-05 -0.49024617E-07
  0.68860771E-07  0.47252199E-06 -0.64834499E-06  0.11831203E-06  0.35880038E-06
 -0.12312541E-06  0.32340357E-06 -0.28631641E-06  0.26025675E-06  0.47395327E-06
 -0.26453295E-04 -0.31189768E-04 -0.58233736E-05 -0.56679329E-05  0.89988814E-05
  0.76544636E-05 -0.10610445E-04  0.81178899E-05  0.19417279E-04  0.18206586E-05
  0.70524045E-06 -0.40307387E-06  0.51841876E-06 -0.57485531E-06 -0.15144727E-06
  0.77452484E-06 -0.47366637E-06  0.72427292E-06  0.26588280E-04 -0.57143040E-04
  0.15191908E-04  0.32350915E-05 -0.42196399E-04  0.53507422E-05  0.48059370E-05
 -0.60128538E-07 -0.56576931E-05 -0.83118253E-06  0.34223972E-05  0.31733933E-06
 -0.18200046E-05 -0.16162370E-05  0.90972848E-06 -0.25740857E-05  0.31709941E-06
 -0.32413062E-07  0.10614760E-04 -0.73800703E-05 -0.20500337E-04 -0.42952794E-04
  0.11045388E-03 -0.70425713E-04  0.24342973E-04  0.36767869E-04 -0.75757934E-05
 -0.43802365E-04 -0.34705815E-04 -0.15066274E-04 -0.16060829E-06 -0.14551534E-04
 -0.24268431E-04 -0.42301723E-04 -0.21774119E-04 -0.23853965E-04 -0.98690853E-05
 -0.89237947E-05  0.23111362E-04  0.22822787E-04 -0.14612739E-04  0.22095788E-05
  0.31826233E-04  0.13037770E-04  0.82810798E-05 -0.86355385E-08 -0.22871045E-05
  0.34996486E-07  0.28204272E-06 -0.31515200E-06  0.30587476E-06 -0.23945706E-06
  0.35410981E-07 -0.69823534E-06  0.12320420E-05 -0.14026410E-05  0.28278393E-06
  0.35550589E-06 -0.25048627E-07 -0.18589756E-06  0.10722343E-05 -0.44340431E-06
 -0.26971066E-06 -0.16377338E-06 -0.38091653E-06 -0.10353264E-06  0.35365826E-06
  0.83307030E-06 -0.33287439E-07 -0.41008587E-06 -0.27940224E-06 -0.39739084E-06

  0.42672402E-05  0.22493525E-05  0.12277308E-05  0.31244916E-05 -0.59842918E-06
 -0.13309632E-05  0.12429384E-05  0.71700321E-06  0.45320952E-06  0.53447439E-04
  0.61631041E-05 -0.26676100E-04 -0.12061723E-03 -0.48867600E-04  0.32076036E-03
 -0.45962725E-04 -0.10337920E-04 -0.21823672E-04 -0.30592754E-04  0.42707959E-05
  0.32018785E-04 -0.29115075E-04  0.24011977E-07  0.10730443E-04 -0.11586360E-04
  0.26487074E-05  0.24548802E-04 -0.13610376E-04  0.16125636E-05 -0.34912483E-04
 -0.18719225E-04  0.70227012E-05  0.88177463E-05 -0.13801984E-04 -0.77459377E-05
 -0.13505337E-04 -0.62319240E-06  0.32065504E-06 -0.48353468E-06 -0.34888157E-06
 -0.13452537E-06  0.66703857E-06 -0.11986091E-06  0.18934833E-07 -0.94123203E-06
 -0.13433110E-04 -0.12380243E-05 -0.73197793E-05 -0.28980565E-05 -0.10773093E-04
  0.72136449E-05  0.10253155E-04  0.73533877E-05  0.15417848E-04  0.73987620E-05
 -0.59799552E-06  0.17913315E-04  0.41097349E-05  0.12342610E-04 -0.62557010E-05
  0.22118213E-04  0.24591212E-04  0.18809683E-04 -0.97327261E-07 -0.93943539E-07
 -0.31771760E-06  0.30995404E-06  0.24564370E-06 -0.35689635E-06  0.33900303E-06
 -0.28401996E-06  0.71489589E-07 -0.23262671E-06 -0.72959815E-07 -0.17815730E-06
  0.53842870E-07  0.30558802E-06  0.40435184E-06 -0.64404791E-07  0.47102810E-07
  0.11087028E-07  0.51082854E-06  0.19482712E-06  0.68990639E-06  0.12184173E-06
  0.56965079E-07  0.28712210E-06  0.33638231E-06 -0.18799582E-06  0.21587452E-06
 -0.11863505E-04 -0.52785161E-05 -0.21609898E-05  0.58295080E-05  0.11488726E-04
 -0.86171078E-05 -0.28023037E-05 -0.99709747E-05  0.22056382E-06  0.15803598E-06
 -0.12230673E-06  0.24081588E-06  0.27163236E-07  0.16330964E-06  0.28402509E-06
 -0.25055006E-06  0.36151127E-06  0.51699338E-06  0.70694944E-05 -0.82673692E-05
  0.48354665E-05  0.11433644E-04  0.14740481E-04 -0.14664781E-04 -0.24458593E-06
  0.11113918E-04 -0.61293064E-05  0.61881528E-06  0.97945606E-06 -0.39474025E-06
  0.10050225E-05 -0.51238724E-06  0.38363702E-06 -0.20090542E-06 -0.99762121E-06
 -0.65461174E-06  0.18562995E-04  0.81899724E-05  0.38103343E-05  0.22076983E-04
 -0.53949128E-04 -0.13398506E-04 -0.80916261E-05 -0.18724963E-04 -0.20029739E-04
 -0.14452956E-04 -0.17402419E-04  0.46303895E-04 -0.81144130E-05 -0.65298639E-05
  0.62140807E-04 -0.42223414E-05  0.20065872E-04  0.37665946E-04 -0.46423976E-04
 -0.17789552E-04  0.23279007E-05 -0.42844205E-04  0.11656840E-04  0.26031829E-04
 -0.93810831E-05  0.12180669E-04 -0.13818517E-04 -0.27335041E-06  0.40264911E-06
 -0.30443128E-06 -0.29731654E-06 -0.15151360E-06  0.72397739E-06 -0.31817726E-07
  0.28994695E-07 -0.20323790E-06 -0.61809113E-07  0.19660251E-06 -0.52770277E-06
  0.27374376E-06  0.55403843E-06  0.47256188E-06 -0.19614289E-06  0.53480936E-06
 -0.14564133E-06 -0.42587759E-06 -0.85530846E-07 -0.17658386E-06  0.73382983E-06
  0.75450862E-07 -0.20095879E-06 -0.18204208E-06  0.35574282E-06  0.53394654E-06

 -0.51370210E-05 -0.85566695E-07 -0.11655055E-05 -0.41884162E-05  0.23851786E-05
  0.12981722E-05 -0.15481050E-06 -0.62683360E-06  0.14058500E-06 -0.53074071E-04
 -0.49180900E-04 -0.54154989E-05  0.62956095E-04 -0.35751677E-05 -0.45962725E-04
  0.38748364E-03 -0.75045570E-05 -0.11499070E-05  0.13518693E-04 -0.15832915E-04
 -0.25514984E-04 -0.12291012E-04 -0.87943789E-05 -0.21230696E-04 -0.58922909E-06
 -0.80204006E-05 -0.31396434E-04 -0.12583767E-04  0.26457894E-04  0.40285275E-04
  0.36255700E-04 -0.11886425E-04 -0.38942728E-05 -0.24172779E-05  0.42766172E-04
  0.10420354E-04  0.11197356E-05 -0.74550912E-06 -0.41676082E-06  0.47873032E-07
 -0.71898128E-06 -0.17296253E-06 -0.11142377E-06 -0.22827947E-06  0.52077566E-06
  0.62034701E-05  0.28972954E-04 -0.47068023E-06  0.15226210E-05  0.33939616E-04
 -0.24484463E-06 -0.53658903E-04  0.25814973E-06  0.92441891E-05  0.15365240E-04
 -0.19897969E-04 -0.15194837E-05 -0.20840152E-04  0.21931904E-04 -0.81424652E-05
  0.12209589E-04 -0.23680326E-05 -0.77756732E-05  0.25911857E-06  0.10364332E-05
 -0.84376319E-07  0.60907950E-08  0.95348613E-06 -0.21330812E-06 -0.65896975E-06
  0.62478885E-07 -0.59879215E-06  0.30120149E-06  0.85736170E-06 -0.95096525E-07
 -0.18693593E-06 -0.14466117E-06 -0.20280657E-06 -0.78350251E-07  0.20321075E-06
  0.13167159E-07  0.14441276E-06 -0.43212243E-06 -0.32296715E-07 -0.14873225E-06
 -0.40009818E-07 -0.38616316E-06 -0.86044321E-06  0.11653809E-06 -0.27158823E-06
  0.11210016E-04 -0.18450503E-04 -0.78341755E-05 -0.84846194E-05 -0.26901922E-05
  0.57055370E-05  0.15350473E-05  0.10139942E-04 -0.80478617E-05 -0.11697630E-05
  0.34506348E-07 -0.31376542E-06  0.20712932E-06 -0.10456470E-05  0.16928403E-06
 -0.77146155E-07 -0.41455021E-07 -0.28652092E-06  0.73702407E-05  0.12135764E-04
 -0.16828343E-04  0.19579692E-04  0.33336075E-04 -0.74001216E-05 -0.18609569E-04
 -0.39704041E-05 -0.17728904E-04  0.13808408E-05  0.43530248E-06 -0.86231086E-06
 -0.15687995E-05 -0.91583514E-06 -0.40188815E-06  0.19549566E-07  0.31118946E-06
  0.41566870E-06 -0.62826949E-05 -0.22551622E-04  0.11902007E-05  0.19003117E-04
  0.87777115E-06  0.51466957E-05 -0.22147239E-04 -0.98263526E-05  0.15887252E-04
 -0.17265977E-04 -0.95504793E-05  0.17652001E-04 -0.68082474E-04 -0.28393091E-04
 -0.48613389E-05 -0.84077663E-04 -0.22246251E-04 -0.41829879E-05 -0.76897254E-05
  0.20429739E-04  0.61935509E-05  0.20835187E-04 -0.34823670E-04  0.38789465E-05
 -0.71321986E-04  0.11396140E-05 -0.49209358E-05  0.24112626E-06  0.35441966E-06
 -0.68533086E-06 -0.13764850E-06  0.29197185E-06 -0.25713590E-06 -0.75805730E-07
 -0.40624174E-06 -0.91794777E-07 -0.49199860E-06  0.46264394E-06  0.34477126E-06
 -0.12235850E-06 -0.96848806E-06 -0.27219778E-06 -0.23921236E-06 -0.95326523E-07
 -0.35900406E-06  0.36019545E-06 -0.11612864E-07  0.28320252E-06 -0.43042801E-06
  0.28614057E-06 -0.15774772E-06  0.17759557E-06 -0.29983916E-06 -0.26821682E-06

 -0.31294823E-06 -0.27998994E-06  0.12815375E-05 -0.52128236E-06 -0.34473592E-07
  0.80734975E-06 -0.39435085E-06  0.20221723E-05  0.10825909E-05  0.15096598E-04
 -0.54994004E-05 -0.25770360E-04  0.16540765E-06  0.25147356E-05 -0.10337920E-04
 -0.75045570E-05  0.22550344E-03  0.99290850E-05 -0.12876902E-04 -0.21674456E-04
 -0.16040092E-04 -0.10494435E-04 -0.10235803E-04  0.35442939E-05 -0.10297742E-04
 -0.19688145E-04 -0.20883531E-05 -0.80602459E-05  0.91655427E-06  0.22111912E-04
  0.19407613E-04  0.58401700E-05 -0.31234772E-04  0.27356613E-04  0.30487326E-05
 -0.16256390E-04 -0.33150346E-06  0.39472680E-06 -0.12108705E-06  0.61254848E-06
 -0.31228758E-06  0.23339898E-06  0.32650394E-06  0.49721047E-06  0.57703616E-07
 -0.25505767E-06  0.12390230E-04  0.68411263E-05  0.41117239E-05 -0.13533684E-04
  0.20559198E-04  0.31913376E-05 -0.14640709E-04  0.45846547E-05 -0.31747675E-04
 -0.11778701E-05 -0.24006416E-04  0.77394906E-05  0.19774183E-04 -0.15561630E-04
  0.64111244E-05 -0.10208923E-04 -0.24518753E-05  0.10870239E-06  0.42282423E-06
  0.34039976E-06 -0.71428782E-07 -0.18348720E-06  0.25827210E-06 -0.12172247E-06
  0.19078769E-06  0.34452616E-07 -0.28209242E-06 -0.10052925E-06 -0.33712216E-06
 -0.13276743E-06 -0.10885566E-06  0.27768538E-06  0.38953067E-06  0.31194913E-06
 -0.39615605E-06  0.64294745E-06 -0.42808272E-06 -0.90939265E-06 -0.16936259E-06
 -0.43172995E-07 -0.19363484E-07  0.47662853E-06  0.19172694E-08  0.14438955E-07
  0.12014721E-04  0.79421118E-05 -0.20765094E-04  0.85124344E-05 -0.66843408E-05
  0.91456176E-06 -0.68677646E-05 -0.38447909E-05 -0.34459323E-05 -0.24518053E-06
  0.34521219E-06 -0.10922480E-06 -0.37093983E-06  0.72500821E-06 -0.67208172E-06
 -0.21684543E-06  0.34580434E-06  0.48613716E-07 -0.11511597E-04 -0.11484417E-04
  0.10160471E-04  0.56099861E-05  0.85167863E-05 -0.46734367E-05 -0.67414499E-05
 -0.39395328E-05 -0.85542648E-05 -0.25896340E-05 -0.71717215E-06 -0.16250650E-05
  0.65519359E-06  0.38250805E-06 -0.14684238E-06  0.51508297E-06 -0.10934705E-05
 -0.78669455E-07 -0.23040612E-04 -0.14609940E-04 -0.17171156E-04  0.16280374E-04
  0.26845921E-04 -0.18056176E-04  0.13956904E-05 -0.53310672E-04  0.60241663E-05
  0.20216074E-04  0.16002536E-04  0.11594652E-04 -0.82335779E-04  0.10933028E-04
 -0.12199551E-04 -0.36456976E-04 -0.60740116E-04 -0.88396753E-06  0.56236174E-05
 -0.12808814E-04  0.15311409E-04  0.33405922E-04 -0.36789876E-05 -0.19444100E-05
 -0.18057275E-04 -0.27322240E-04 -0.21316224E-04  0.61796771E-06 -0.15750837E-06
 -0.99876376E-07  0.13045496E-05 -0.26958149E-06  0.41086102E-06  0.73200580E-07
  0.73978174E-07 -0.17469050E-06 -0.64548241E-07  0.22639815E-06  0.26101271E-07
  0.98492914E-07  0.19157186E-07  0.74386462E-07 -0.24669724E-06 -0.28483423E-06
 -0.27879704E-06  0.59654773E-06  0.12093418E-06  0.49077915E-07 -0.17870411E-06
  0.16962574E-06 -0.14199565E-06  0.74971425E-06  0.13258823E-06 -0.96679010E-07

 -0.77284609E-06 -0.59537476E-06  0.10685507E-05 -0.84206925E-06  0.10074734E-06
  0.81243657E-06 -0.24083160E-06  0.81308058E-06 -0.83852337E-06  0.46515056E-06
  0.27736838E-04  0.22244574E-04  0.16533304E-04 -0.42886036E-04 -0.21823672E-04
 -0.11499070E-05  0.99290850E-05  0.36637644E-03  0.60946560E-05  0.11340589E-04
 -0.21109241E-04 -0.23117535E-04 -0.80988069E-05  0.71568411E-05 -0.35224375E-04
 -0.15883547E-04 -0.13770636E-04 -0.72537486E-05 -0.30836855E-04 -0.15387201E-04
  0.21122819E-04 -0.10214353E-04 -0.29601372E-05 -0.44673996E-05  0.80243168E-05
  0.10297115E-04 -0.40273759E-06 -0.79477392E-06 -0.54187616E-06 -0.99090852E-06
  0.86093856E-06 -0.90198971E-07 -0.57016491E-06  0.23735036E-06  0.96921572E-07
 -0.79334303E-05 -0.15239194E-04  0.31404448E-04  0.95070807E-05 -0.30991942E-04
 -0.13280378E-05  0.11846231E-04  0.14587391E-04 -0.32013365E-04 -0.27407766E-05
 -0.54327984E-05 -0.14660384E-04  0.13481503E-04 -0.52493183E-04 -0.78325310E-05
 -0.52051235E-04 -0.57224426E-05 -0.11547870E-04 -0.34140020E-06 -0.79218254E-06
  0.52707883E-06  0.89450131E-08  0.15075041E-06 -0.22614184E-06  0.15022740E-07
 -0.22453424E-06  0.59787204E-06 -0.83447525E-08  0.73734800E-06  0.59114071E-06
 -0.25474526E-06 -0.53225347E-06 -0.32592617E-06 -0.52231197E-06  0.56460034E-06
  0.56254101E-06 -0.40346160E-07  0.12363407E-05  0.23666650E-06  0.26161767E-07
  0.72999668E-06 -0.38962806E-06  0.50191043E-06  0.27370094E-06 -0.70349682E-07
  0.86503737E-05  0.54188033E-04 -0.92707288E-05  0.43942492E-05 -0.24520243E-04
 -0.15342852E-05 -0.78376144E-05 -0.37480969E-05  0.85265898E-05  0.60777638E-06
  0.16056937E-05  0.50232479E-06 -0.80659546E-07 -0.69593954E-06  0.11853298E-06
  0.41351858E-06  0.10024326E-06  0.29783337E-06  0.77274633E-05  0.33008022E-04
  0.14820661E-05  0.28616125E-05 -0.23275885E-04  0.51931115E-05  0.11822947E-04
 -0.11325383E-04 -0.21260651E-04 -0.22549909E-06 -0.14852541E-05 -0.80304869E-06
  0.33498446E-06  0.69451660E-06 -0.46613015E-08  0.61354892E-06  0.17043572E-05
  0.34581835E-06 -0.57657530E-05  0.29673773E-04 -0.66720757E-05 -0.16676041E-04
 -0.29833225E-04  0.11780391E-04 -0.20043690E-05  0.11390340E-04 -0.13190299E-04
 -0.21511491E-04  0.44015177E-04  0.21315940E-04  0.39498515E-04 -0.33243707E-04
  0.13797736E-04  0.20915228E-04  0.75551241E-05 -0.18751816E-04  0.31058450E-04
  0.40094747E-05 -0.16770064E-04  0.89563902E-05  0.88532099E-07  0.14181124E-04
 -0.21588120E-04  0.20438119E-05 -0.29496835E-04  0.63300796E-06 -0.17796676E-06
  0.54179125E-06  0.22131387E-06 -0.48129568E-06  0.26919818E-06 -0.39996426E-07
  0.13163049E-06 -0.14894537E-06 -0.50600903E-06 -0.12146695E-05 -0.20954504E-06
  0.15975371E-07 -0.57243450E-06 -0.31194059E-07  0.36938575E-06 -0.72038591E-07
  0.79364157E-06  0.52606790E-06 -0.27572845E-06  0.20383268E-06  0.10999967E-06
 -0.75311118E-06 -0.15826195E-06  0.53860812E-06 -0.44055537E-08  0.22220401E-06

 -0.81296946E-06  0.29320293E-06 -0.22531629E-06 -0.84540363E-06  0.16419073E-06
  0.36719687E-06  0.67421036E-06  0.17108035E-05 -0.57176895E-06  0.29092145E-04
 -0.29116472E-05  0.24963490E-04  0.30957008E-04 -0.29658827E-04 -0.30592754E-04
  0.13518693E-04 -0.12876902E-04  0.60946560E-05  0.41004634E-03  0.54428346E-04
  0.22075583E-04 -0.61295922E-05 -0.15339256E-05  0.14784893E-04 -0.89339177E-05
  0.32683631E-04  0.10327994E-04 -0.25099335E-04 -0.21132338E-04 -0.28409795E-05
 -0.47390613E-04 -0.99192069E-05 -0.87327505E-05  0.43745987E-04  0.29197853E-04
  0.18484039E-05 -0.79351256E-07  0.16005444E-06 -0.59513810E-06  0.70402901E-06
  0.24881065E-06  0.80657591E-08  0.21455014E-06  0.63909161E-07  0.18276872E-06
  0.15816860E-04  0.13889652E-05 -0.35924705E-05 -0.30148958E-05  0.14097188E-04
 -0.89149893E-05 -0.11249292E-04  0.19492381E-04  0.65173640E-05 -0.17261588E-04
  0.15283934E-04  0.71545971E-05 -0.85406629E-05 -0.15066353E-04 -0.24342829E-05
 -0.62149511E-04  0.10910779E-04 -0.30814565E-05  0.27427469E-05 -0.40417340E-08
  0.32048832E-06  0.48778554E-06 -0.33537658E-06 -0.29589123E-06 -0.87649243E-09
 -0.23157718E-06  0.90836066E-08  0.35883979E-06 -0.32258511E-06 -0.20700359E-06
  0.24669291E-06 -0.43827391E-06  0.12476749E-06  0.69017506E-07  0.75504519E-06
 -0.84596659E-07  0.38791042E-07  0.41964222E-06 -0.78274229E-07 -0.12168215E-05
  0.70675742E-06 -0.17174903E-06 -0.62433084E-06 -0.10814056E-06 -0.41131781E-06
  0.43746443E-04  0.16521468E-04 -0.10267423E-04  0.28732621E-04 -0.79632669E-05
 -0.10299289E-04  0.88417406E-05  0.16521365E-04 -0.10282789E-04  0.62241203E-06
 -0.59831282E-07  0.36983538E-06  0.96422478E-06  0.47902405E-07  0.16265037E-07
  0.73569321E-06  0.24356830E-06 -0.13377243E-06  0.16844434E-04 -0.99421093E-05
 -0.47766339E-05 -0.27028524E-04  0.12670860E-05  0.12376685E-04 -0.16904938E-04
 -0.68150198E-05  0.67901121E-05  0.87089363E-06 -0.18066865E-05 -0.96750525E-06
 -0.14887697E-05  0.42584758E-06 -0.82907054E-06 -0.11934288E-05  0.96745112E-06
  0.70105902E-06 -0.56510513E-04 -0.60549076E-05  0.37286049E-04 -0.17515900E-04
  0.19135771E-04  0.40359340E-04  0.13019416E-04 -0.33186974E-04 -0.85108447E-05
 -0.39200168E-04  0.57668477E-05  0.11478230E-04 -0.52656542E-04  0.11783124E-04
 -0.38696140E-05  0.95723452E-06  0.48355086E-05 -0.11971769E-04 -0.48025617E-04
  0.16583667E-04 -0.60294875E-09  0.11290436E-03 -0.10246824E-04  0.11538554E-04
  0.33734683E-04  0.25311814E-04  0.63529712E-05 -0.18228357E-06  0.27803238E-06
 -0.19717332E-06 -0.16064051E-06  0.77737264E-06 -0.76952675E-06  0.42483513E-06
 -0.75594272E-07  0.35173991E-06  0.81104014E-06 -0.51306445E-06  0.16612099E-06
 -0.47096022E-07 -0.15723626E-06  0.13709898E-06  0.26415506E-06 -0.68662158E-06
  0.89346116E-07  0.42193622E-06  0.43702010E-06 -0.13563335E-07  0.11249224E-06
 -0.49670936E-06  0.14954911E-06 -0.41932192E-06 -0.23918316E-06  0.31786674E-06

 -0.21624559E-06  0.84960444E-06  0.33076048E-05  0.14000306E-05  0.89091922E-06
 -0.22602581E-05  0.68254632E-06 -0.28589468E-06 -0.12716731E-05  0.22345755E-04
 -0.27046734E-04 -0.12824603E-04  0.40959290E-05 -0.50952228E-04  0.42707959E-05
 -0.15832915E-04 -0.21674456E-04  0.11340589E-04  0.54428346E-04  0.54744410E-03
  0.52178955E-04 -0.33531846E-04  0.12570212E-04 -0.14225600E-04  0.23765484E-05
 -0.98422257E-05  0.44810615E-04  0.12509282E-04 -0.29530829E-04  0.29289148E-04
  0.10778633E-04  0.47230982E-04 -0.38842257E-04  0.21000576E-04  0.18969761E-04
  0.40040196E-04 -0.73783205E-06 -0.22921286E-06 -0.57215606E-07 -0.23218939E-06
 -0.17816610E-06 -0.39937613E-07  0.34381384E-08  0.29950647E-06 -0.63507223E-06
 -0.82665638E-05  0.16617633E-04 -0.35028508E-05 -0.38919837E-05 -0.42061902E-05
  0.93480088E-05  0.27316763E-04 -0.24711623E-05 -0.42621193E-04 -0.63611272E-05
  0.18863677E-04  0.29949768E-05  0.87726557E-05 -0.28644999E-04 -0.46585101E-05
  0.23516251E-04 -0.13799503E-04 -0.13171037E-04 -0.27444278E-06 -0.44149249E-06
  0.81671849E-07 -0.82363111E-06  0.12670128E-05 -0.33735500E-06  0.78188351E-06
 -0.36136470E-06  0.38488147E-06  0.40937205E-06  0.58138977E-06  0.11618481E-05
 -0.84399112E-07 -0.76977192E-06  0.95383411E-07 -0.48787268E-06 -0.32248011E-06
  0.97535547E-07 -0.31316815E-06  0.31546226E-05  0.14894674E-08 -0.28364036E-06
  0.48854908E-06 -0.85260433E-07  0.53245373E-06 -0.60975657E-07 -0.19586968E-06
  0.74991147E-05  0.41264823E-04  0.26991583E-04 -0.36679665E-05 -0.37813370E-04
  0.41233881E-05 -0.79973892E-05 -0.65746565E-05  0.10777368E-04 -0.91897066E-06
  0.53308385E-06  0.85594934E-07  0.50876795E-06 -0.11432834E-05 -0.21102589E-06
  0.90485885E-07 -0.33708419E-06 -0.35343132E-06 -0.20274529E-04  0.17330153E-04
 -0.20611775E-04 -0.21704437E-04  0.28137398E-04 -0.57964608E-05 -0.65207604E-05
 -0.98153936E-05 -0.10270523E-04  0.12635984E-06 -0.87317927E-06  0.10331664E-05
  0.55500058E-06 -0.87667829E-06 -0.42688665E-06 -0.15187375E-05  0.17369951E-06
  0.30664129E-06  0.80536530E-05 -0.95008333E-04 -0.24258800E-04  0.22736786E-04
 -0.24143228E-04 -0.53193906E-05 -0.20219086E-04 -0.52547014E-05 -0.20679258E-04
  0.77404110E-04 -0.27447541E-04  0.30263304E-04  0.37188068E-05 -0.22819755E-04
  0.10922762E-04  0.23850933E-04 -0.91851833E-05 -0.23509851E-04 -0.35981595E-04
 -0.36161933E-04  0.25882735E-04  0.36011932E-04  0.43074345E-04 -0.70457106E-05
  0.40022764E-04  0.26194001E-04 -0.18268627E-04 -0.31925666E-06  0.90794197E-06
 -0.14699781E-06 -0.39114401E-06  0.73465420E-06 -0.78194479E-07 -0.92203023E-07
  0.11908872E-07  0.45097749E-07 -0.58574183E-07  0.18228317E-05 -0.47771118E-06
 -0.10462993E-06 -0.30211141E-06  0.24277980E-06 -0.39391522E-06  0.21195481E-06
  0.31420464E-06 -0.19810173E-07  0.27777126E-07 -0.80241783E-07  0.95182194E-07
 -0.14454220E-05 -0.90308511E-07  0.67387177E-06 -0.50528722E-06  0.62583902E-06

  0.73295090E-06  0.27863088E-05  0.38453709E-05  0.18403817E-05 -0.10820185E-05
 -0.78985871E-06  0.83378173E-06 -0.47234029E-07 -0.29472702E-05  0.43749605E-04
  0.93750149E-05 -0.23963792E-04 -0.28370658E-04  0.58608441E-05  0.32018785E-04
 -0.25514984E-04 -0.16040092E-04 -0.21109241E-04  0.22075583E-04  0.52178955E-04
  0.30811510E-03 -0.40168880E-04 -0.80022056E-05 -0.18100483E-06  0.72820522E-05
  0.67893693E-05  0.61160286E-04  0.88342538E-05 -0.68049249E-05  0.70260270E-04
  0.11468545E-04  0.13867606E-04 -0.63275785E-04  0.84959352E-06  0.38060872E-04
  0.16066887E-04 -0.33400990E-06  0.10115115E-06  0.21312781E-06 -0.54297480E-06
 -0.15894737E-06  0.18782601E-06 -0.76097889E-07  0.30213762E-06  0.34145371E-07
 -0.67024999E-05  0.56909852E-05 -0.16886951E-04 -0.93747303E-07  0.34600509E-05
 -0.21606345E-04 -0.35193618E-05  0.13945593E-04  0.16373648E-04  0.32087314E-04
 -0.14729365E-04 -0.40853461E-05  0.20416861E-04  0.22606694E-04  0.31628237E-05
  0.12984349E-04 -0.22926893E-05 -0.14818766E-04  0.14372602E-06 -0.67805344E-07
 -0.70129622E-06  0.10204363E-06 -0.14495878E-06 -0.44923745E-06  0.59955815E-07
 -0.72564705E-07  0.47349475E-07  0.38235695E-06  0.49129020E-06 -0.11741354E-06
 -0.78710083E-06 -0.32836317E-06  0.91150459E-06  0.51203286E-07 -0.24330408E-06
  0.15601398E-07 -0.30477481E-07 -0.11127486E-05 -0.31904204E-06 -0.62486592E-07
 -0.28200885E-06 -0.75505910E-06  0.47994596E-06 -0.23453050E-06  0.23335296E-06
 -0.11658241E-04 -0.35133383E-05  0.30551834E-04 -0.32711014E-05  0.34379583E-05
  0.18786045E-04  0.43079359E-05  0.40942253E-05 -0.35615060E-05  0.25753376E-06
 -0.84003139E-08 -0.16962441E-06 -0.48285536E-06  0.26413590E-06 -0.53263836E-07
  0.19300658E-06 -0.12156362E-06  0.18883187E-06  0.44175698E-05  0.15075756E-04
  0.38025360E-05  0.26569464E-05  0.60131126E-05 -0.49734493E-05  0.46806153E-06
 -0.14149005E-05  0.50672649E-05 -0.12690871E-07 -0.82216293E-06  0.47242889E-07
 -0.21221656E-06 -0.60305183E-06  0.23698489E-06 -0.94279943E-06  0.12266029E-05
  0.22949124E-05  0.28916253E-04 -0.12651437E-04 -0.12215887E-04 -0.10219817E-04
 -0.74304936E-05  0.36642485E-04 -0.11411441E-04 -0.23353284E-04  0.12569314E-04
 -0.22538658E-04  0.58228141E-05  0.39642582E-04 -0.32809017E-04 -0.31522053E-04
  0.27973461E-04 -0.53852847E-04 -0.58794463E-04 -0.37716572E-04 -0.33710010E-05
 -0.86527835E-05  0.80152994E-04  0.49511270E-05  0.43973968E-04  0.25321413E-06
  0.20008293E-04 -0.53124830E-04 -0.71411367E-04 -0.15202590E-06  0.23701223E-06
 -0.27418218E-06 -0.25709994E-06 -0.32519921E-06 -0.34706131E-06 -0.21432352E-06
 -0.33172221E-06 -0.21284327E-07  0.42781981E-06  0.22324664E-07 -0.51943973E-07
 -0.18055651E-06 -0.11490708E-06 -0.29841747E-06 -0.23141317E-06 -0.38073976E-06
  0.60516481E-06 -0.17641373E-06 -0.57485144E-06 -0.44886821E-06  0.11013081E-06
  0.13544225E-06 -0.72187443E-06 -0.75750941E-07  0.42018414E-06  0.90105075E-07

 -0.97284894E-06 -0.28466752E-05 -0.32712704E-05 -0.27340155E-05  0.69322186E-06
  0.98032750E-06 -0.36786703E-06 -0.32945279E-07  0.18539547E-05 -0.40434019E-04
 -0.68939596E-05  0.65441370E-05  0.78613619E-04 -0.50330850E-04 -0.29115075E-04
 -0.12291012E-04 -0.10494435E-04 -0.23117535E-04 -0.61295922E-05 -0.33531846E-04
 -0.40168880E-04  0.58720869E-03 -0.14767576E-03 -0.12294357E-03  0.11567823E-03
  0.41498575E-05 -0.18046240E-04  0.18251678E-04 -0.10179194E-05 -0.51647764E-04
 -0.50183994E-04 -0.70896021E-05  0.20550255E-04 -0.29248519E-04 -0.57179384E-05
 -0.11230691E-04  0.39959493E-06  0.12066756E-06 -0.57935804E-07 -0.40217618E-06
  0.39258688E-06 -0.35863993E-07  0.89995343E-07  0.81149091E-07 -0.11354562E-06
 -0.10985197E-04 -0.49007722E-05  0.21434932E-04 -0.46778635E-05 -0.23384781E-04
  0.16062396E-04  0.26482490E-04  0.91655699E-05 -0.84434791E-05  0.31612477E-04
  0.50048451E-06 -0.48031848E-05  0.93243714E-04 -0.24579287E-04 -0.16155485E-04
 -0.47087702E-05  0.29267940E-05 -0.95854505E-05  0.13840394E-05 -0.84855230E-06
 -0.23936266E-06  0.14095842E-05  0.28035624E-07 -0.18024047E-06 -0.13574263E-07
 -0.12772105E-06 -0.22034550E-07  0.75417709E-06  0.11487529E-05 -0.11153033E-05
 -0.33034610E-06  0.23229232E-06  0.38284188E-06  0.15767922E-06 -0.33978716E-06
 -0.60296507E-06  0.29386803E-06 -0.28671029E-06  0.32164577E-07  0.59057533E-06
 -0.16571785E-06 -0.13954648E-06 -0.10252648E-05 -0.36014901E-06  0.21649652E-07
 -0.55528404E-05 -0.75299177E-05  0.15963054E-04 -0.19102376E-05 -0.81589200E-05
  0.92587079E-05  0.68310591E-05 -0.10369934E-04 -0.17291699E-05  0.11031934E-05
 -0.14510773E-05 -0.81329179E-06  0.91145036E-06 -0.10763539E-06  0.28951436E-06
 -0.81529268E-06  0.43791883E-06 -0.47773728E-06 -0.24808792E-04  0.10231758E-04
 -0.28099288E-05  0.23801457E-04 -0.33893795E-05 -0.21168831E-04  0.23726620E-04
 -0.27125943E-04 -0.13102604E-04  0.17467996E-05  0.12381475E-05  0.34988502E-06
 -0.15825948E-05  0.12403305E-05  0.24557314E-06 -0.54752176E-06 -0.20804164E-05
 -0.84525163E-06  0.26442234E-04  0.38581433E-04 -0.13847980E-04  0.79063658E-05
 -0.11542943E-04 -0.32700737E-04 -0.26072703E-05  0.43439408E-04  0.15908952E-04
  0.48310976E-05  0.43735110E-04 -0.33972091E-05 -0.10162255E-03  0.17225365E-04
 -0.38134110E-05  0.33840924E-04  0.25751009E-04  0.15008517E-04 -0.95583539E-04
 -0.27665122E-04 -0.28702441E-04 -0.88130592E-04  0.59180006E-06  0.13028446E-04
 -0.25557885E-04  0.20276386E-04  0.32074760E-05  0.10895911E-05 -0.10361101E-05
  0.85948374E-06 -0.72896252E-06  0.21900009E-06 -0.23780198E-06 -0.16965335E-06
 -0.33085333E-06 -0.25928637E-06  0.59604032E-06  0.45515677E-07  0.54789274E-06
  0.12129255E-05 -0.13342380E-06  0.68159488E-06 -0.37279058E-06  0.10378108E-05
 -0.60516978E-06  0.17130641E-06  0.73882817E-06  0.60406051E-06  0.31746258E-06
 -0.31936287E-06  0.46858747E-06 -0.91526062E-07  0.10139619E-05 -0.27868923E-06

  0.13789597E-05 -0.22184232E-05  0.97409843E-06  0.79006884E-06  0.37614535E-05
 -0.26535617E-05  0.39762215E-06  0.31181867E-06  0.14643282E-05  0.63730238E-05
 -0.57722868E-05  0.24752541E-04 -0.38006687E-04 -0.98355521E-05  0.24011977E-07
 -0.87943789E-05 -0.10235803E-04 -0.80988069E-05 -0.15339256E-05  0.12570212E-04
 -0.80022056E-05 -0.14767576E-03  0.10310537E-02 -0.17079349E-03  0.12393695E-03
 -0.71450521E-05  0.23886089E-05  0.13373333E-04 -0.80287707E-04 -0.18764213E-04
 -0.42881620E-06 -0.51275258E-04  0.22009169E-04  0.91328457E-05  0.77360009E-05
 -0.21542964E-05 -0.43104693E-06  0.16684911E-05  0.97123940E-06  0.10268495E-05
 -0.19050479E-05 -0.32854841E-06 -0.10685502E-06 -0.20584190E-10  0.76571036E-06
 -0.11812622E-04  0.26885091E-04  0.11285286E-05 -0.17672299E-04  0.56651200E-04
  0.29774688E-05 -0.81652907E-05 -0.15040290E-04 -0.22627205E-04 -0.14427655E-04
  0.70177960E-04  0.22796798E-04 -0.28021685E-04  0.14419133E-04 -0.51376404E-05
  0.88782758E-05 -0.35805161E-04 -0.37776062E-04 -0.82475652E-06 -0.24543552E-05
  0.38993273E-06  0.44920926E-07  0.12631128E-05 -0.31456666E-06 -0.82443816E-06
 -0.22472102E-06 -0.23774674E-06 -0.11868379E-05 -0.15164619E-05  0.32602871E-06
  0.14823318E-06 -0.19033489E-05 -0.27126246E-06  0.36103765E-06 -0.97834282E-07
  0.44192570E-06  0.21992521E-06 -0.17781502E-05  0.10574034E-06 -0.22923638E-06
  0.11054771E-06  0.38391229E-06  0.68622285E-06  0.51669629E-06 -0.83997458E-06
 -0.20408386E-05 -0.50337209E-04 -0.99563136E-06 -0.15311253E-04 -0.66714762E-04
 -0.18175218E-05 -0.19849439E-04  0.50565590E-05 -0.11598798E-04 -0.12761123E-05
 -0.61605511E-06 -0.19840721E-06 -0.10699159E-06 -0.10523459E-05 -0.75880254E-07
 -0.57780984E-06 -0.40154838E-06 -0.77472595E-06 -0.12018651E-04  0.76322470E-05
  0.10048145E-04 -0.78753882E-05  0.56052893E-04 -0.67839846E-05 -0.20293999E-04
  0.54248261E-05 -0.22634101E-04 -0.38417235E-05 -0.58508870E-05 -0.12606988E-05
  0.14976646E-05  0.96342417E-06 -0.73634971E-06  0.14868199E-05  0.92257978E-06
 -0.96390728E-06 -0.42270149E-04 -0.40565597E-04  0.28276358E-04 -0.19874974E-04
 -0.33988750E-04  0.21581975E-04 -0.81613996E-04  0.18286565E-04  0.51087337E-04
 -0.49825486E-04 -0.13904648E-03  0.47634102E-05  0.10312105E-03  0.19871142E-03
 -0.24625565E-04  0.20875829E-03 -0.13004915E-05 -0.61059242E-05  0.49233752E-04
  0.22203361E-04  0.19629864E-04  0.46910945E-04 -0.32240401E-05  0.12119656E-04
  0.75812968E-04 -0.25081551E-04  0.38262587E-05 -0.49249058E-06  0.37043522E-05
  0.82069636E-06  0.25412189E-06 -0.13400155E-05  0.45672118E-06 -0.16967171E-06
 -0.20503374E-06 -0.43932780E-06 -0.13017328E-06 -0.18034905E-05  0.85414604E-07
 -0.68143819E-06 -0.15015841E-05  0.14551465E-07 -0.32700368E-06 -0.19306387E-06
  0.55742327E-06  0.70031472E-06 -0.40579305E-06 -0.50271203E-06 -0.61112508E-06
  0.45945309E-06  0.12151573E-06  0.89260888E-06  0.24293193E-06 -0.72032945E-06

 -0.19643912E-06  0.31319757E-05  0.10869708E-05  0.92510594E-06 -0.27383162E-05
  0.15913346E-05  0.42539478E-06  0.22404291E-06 -0.85359251E-06  0.10440574E-04
 -0.15531871E-05 -0.69026573E-05 -0.17485146E-04  0.59837873E-05  0.10730443E-04
 -0.21230696E-04  0.35442939E-05  0.71568411E-05  0.14784893E-04 -0.14225600E-04
 -0.18100483E-06 -0.12294357E-03 -0.17079349E-03  0.29806248E-03 -0.33920098E-04
  0.22840663E-04 -0.16860042E-04 -0.12708901E-04 -0.43677200E-05  0.93649523E-05
  0.10753526E-04  0.13744499E-04 -0.86655573E-05  0.69192986E-05 -0.11523477E-04
 -0.26550182E-05 -0.36891199E-06  0.26439124E-06 -0.15025311E-06 -0.65231627E-06
  0.59659755E-07  0.12981784E-06 -0.83911241E-07  0.10279596E-06 -0.13618290E-06
  0.66690134E-05 -0.13528450E-04 -0.18755337E-04  0.92097261E-05 -0.18649371E-04
 -0.13552092E-04  0.11835557E-04  0.64348627E-05  0.29088655E-04  0.94916232E-05
 -0.17129809E-04  0.71136665E-05 -0.19727185E-05  0.66093416E-06  0.62680595E-05
 -0.99569755E-06  0.18089554E-04  0.22580093E-04 -0.64305070E-06  0.58045828E-06
 -0.19533428E-06 -0.19257591E-06 -0.40510849E-06  0.39724003E-06  0.20779244E-06
 -0.33341313E-07 -0.13630807E-06  0.19732798E-06  0.15655096E-06 -0.78798422E-07
  0.10820994E-06  0.24159715E-06 -0.41011214E-06 -0.50667603E-07  0.68282931E-07
  0.93605097E-07  0.25551975E-07  0.57040620E-06  0.37269190E-06 -0.34247282E-06
  0.34800799E-06 -0.26399720E-06 -0.21385042E-06 -0.80652083E-06  0.21882185E-06
  0.10296388E-04 -0.17251843E-06 -0.12357548E-04  0.86331128E-05 -0.27873106E-05
  0.70682349E-05  0.27943484E-05  0.13085971E-04  0.50408757E-05  0.65336752E-06
  0.44920504E-06  0.53100003E-06 -0.16728364E-06  0.37164313E-06 -0.85570361E-07
  0.23238609E-06  0.27691697E-06  0.42114188E-06  0.71284461E-05 -0.15355173E-04
  0.92798462E-05 -0.23288232E-04 -0.12445583E-04  0.73880001E-05  0.71922090E-05
 -0.11455177E-04  0.83874566E-05 -0.17453063E-06  0.99484868E-07  0.37119369E-07
 -0.13262117E-07 -0.36981201E-06 -0.12721353E-06 -0.37995358E-06  0.16976150E-06
 -0.45872916E-06 -0.26666469E-05  0.10180268E-04 -0.18903880E-04 -0.21320519E-04
  0.60802701E-05  0.34992704E-04  0.67129283E-05 -0.11454268E-04 -0.15878383E-04
  0.44604177E-04  0.94576776E-05 -0.25290861E-04 -0.20007862E-05 -0.25272594E-04
  0.77275664E-05 -0.33990976E-04 -0.95602704E-05  0.14984788E-04  0.14841649E-04
  0.99682606E-05 -0.41989552E-04  0.10807491E-04 -0.70453193E-06 -0.32927957E-04
 -0.78319377E-05  0.13226195E-04  0.25082706E-04 -0.34289642E-06  0.92569771E-07
 -0.97960562E-06 -0.10726021E-06  0.67957977E-06 -0.14664618E-06  0.13734666E-06
  0.29611473E-06  0.51095948E-06 -0.36312089E-08  0.80630238E-06 -0.12047797E-05
  0.37569055E-06 -0.47606673E-07 -0.70381714E-06 -0.25157713E-06 -0.56838435E-06
  0.21053646E-06 -0.27195315E-06  0.90739037E-07 -0.23521729E-06  0.26217208E-06
 -0.18677751E-06 -0.52316731E-06 -0.27760234E-07 -0.27634091E-06  0.48970353E-06

 -0.14204293E-05 -0.87404404E-07 -0.12224648E-05  0.11648446E-06  0.25318404E-06
 -0.12443889E-06  0.18217054E-05  0.19819278E-05  0.45712197E-06  0.68580697E-05
 -0.34484766E-04  0.29950577E-04  0.14179847E-04 -0.31130570E-04 -0.11586360E-04
 -0.58922909E-06 -0.10297742E-04 -0.35224375E-04 -0.89339177E-05  0.23765484E-05
  0.72820522E-05  0.11567823E-03  0.12393695E-03 -0.33920098E-04  0.50755219E-03
  0.30866088E-04  0.27416716E-04  0.15861876E-04 -0.22630844E-04 -0.43321272E-04
  0.61314644E-05 -0.37992292E-04  0.10633339E-04 -0.14501580E-04  0.13573819E-04
 -0.72357614E-05 -0.24547026E-06 -0.64974021E-07  0.19727436E-06  0.12044716E-06
 -0.15997896E-05  0.72860938E-07  0.13021666E-05  0.29170564E-06  0.16263855E-06
 -0.67951988E-05  0.50428646E-04 -0.30273894E-05 -0.24361932E-04 -0.51501111E-04
  0.13617868E-04  0.11592195E-04  0.45631013E-05  0.22917156E-05 -0.14770532E-04
 -0.27387680E-05  0.21702344E-05  0.26382253E-04  0.19162035E-04 -0.84270234E-05
  0.49328239E-04  0.97391561E-05 -0.32814444E-05  0.74288527E-06 -0.11951561E-05
 -0.98690963E-07  0.46455882E-06  0.22598934E-06 -0.20827285E-06  0.46164858E-06
 -0.40203917E-06 -0.48664552E-07 -0.50423648E-06 -0.33945621E-07 -0.20180984E-06
 -0.12952694E-06 -0.55452190E-06  0.46525582E-07 -0.47144857E-06  0.67930799E-08
 -0.48871426E-06  0.66318490E-06 -0.14346688E-05  0.25929638E-06 -0.60961126E-06
 -0.20726698E-06  0.31263338E-07 -0.11547376E-06  0.38759111E-06 -0.14363471E-06
  0.70483315E-06 -0.14519869E-04 -0.84116170E-06 -0.21006075E-05 -0.29417322E-04
  0.10191231E-04 -0.84826650E-06 -0.92347980E-05 -0.25333170E-05 -0.14141972E-05
  0.27038317E-06  0.48555052E-06 -0.80018478E-07 -0.14033664E-06  0.12577275E-08
 -0.92755937E-06  0.21811915E-06 -0.14205051E-06 -0.15720511E-04 -0.65149480E-05
 -0.53087951E-05  0.24756957E-04  0.40526393E-04 -0.14849304E-04 -0.22866660E-04
 -0.71552302E-05 -0.10112074E-04 -0.20673976E-05 -0.15118963E-05  0.23152467E-06
 -0.22417692E-05 -0.37855158E-06  0.83373034E-06 -0.13946196E-05 -0.12441064E-05
 -0.11289297E-05  0.17274825E-05  0.13881560E-04 -0.18304211E-04  0.20402286E-04
  0.17795661E-04 -0.28859887E-04  0.11255999E-04  0.11098912E-04 -0.17224905E-04
  0.26457656E-04  0.23570847E-04 -0.29031247E-04 -0.61723800E-04  0.42209515E-04
 -0.16814977E-05  0.46988609E-05  0.38197747E-05  0.36693691E-04 -0.81663745E-04
 -0.42308961E-04 -0.23919059E-07  0.31974510E-04 -0.17957981E-04 -0.41334349E-05
 -0.30834853E-04  0.35430995E-05 -0.77605878E-05 -0.56845066E-06  0.10884596E-05
  0.44407691E-06 -0.59989082E-06  0.69664336E-07 -0.22156150E-06 -0.93852014E-06
  0.36164768E-06  0.23750974E-06 -0.50166460E-06  0.11315181E-05 -0.19261333E-06
 -0.27632282E-06 -0.50819984E-06  0.30685384E-06  0.91914757E-06  0.34162723E-06
 -0.11268595E-06  0.24314961E-06  0.12407326E-06  0.68601409E-07  0.32335309E-06
 -0.55925765E-07 -0.15861876E-06  0.48180399E-06  0.90669431E-06  0.28516787E-06

 -0.19082257E-05 -0.41107088E-07 -0.42057160E-06  0.90191903E-06 -0.30328641E-06
 -0.62360263E-07  0.16698330E-05  0.21000182E-05  0.23603675E-07  0.29614684E-04
  0.20926242E-04  0.44311752E-04 -0.10607375E-04 -0.89820490E-05  0.26487074E-05
 -0.80204006E-05 -0.19688145E-04 -0.15883547E-04  0.32683631E-04 -0.98422257E-05
  0.67893693E-05  0.41498575E-05 -0.71450521E-05  0.22840663E-04  0.30866088E-04
  0.24073918E-03  0.42041249E-04  0.16686562E-04  0.19090202E-04 -0.10815211E-04
 -0.12282330E-04 -0.10204531E-05  0.11105803E-04 -0.57440874E-05  0.23240958E-04
  0.21031298E-05  0.53804774E-06  0.62764548E-06 -0.69141966E-06  0.29262126E-06
  0.18295632E-06 -0.44579282E-06  0.14251101E-06 -0.12455997E-06  0.21283315E-06
  0.84111102E-06 -0.21501346E-04 -0.39618659E-05  0.77040177E-05 -0.87055318E-05
 -0.19869135E-04 -0.16408355E-04  0.13824649E-04  0.22246881E-04 -0.67754921E-05
  0.15613609E-05  0.26483459E-04 -0.38014457E-05 -0.98964774E-05  0.11102178E-04
  0.32723263E-05  0.13465758E-04  0.55842205E-06 -0.62798789E-07  0.25314953E-07
 -0.11456019E-06  0.14393906E-06  0.56251526E-06 -0.39395086E-06  0.18185185E-06
 -0.12945045E-06 -0.60701276E-07 -0.34054713E-07 -0.49943850E-06  0.37373009E-06
  0.37788624E-06 -0.11649340E-06 -0.86262054E-07 -0.42829640E-06  0.10671832E-06
 -0.24954681E-06 -0.22988449E-06  0.39573132E-06  0.38058528E-06 -0.20095874E-07
  0.11272244E-06  0.21135778E-06 -0.51179445E-06  0.33887261E-07 -0.14074095E-06
  0.46384535E-05 -0.13765052E-05 -0.17796492E-04  0.60156133E-05  0.10025781E-04
 -0.18918389E-04 -0.70185540E-05  0.10154124E-05  0.98575716E-05  0.45288654E-06
 -0.23517565E-06 -0.61868547E-07  0.91469996E-07  0.10706328E-06  0.45789703E-06
  0.54359514E-07 -0.34287570E-06 -0.21053311E-06 -0.46568921E-05 -0.21859069E-05
  0.55429391E-05 -0.16852138E-04  0.67887683E-06 -0.14622988E-04  0.10772203E-04
 -0.12278092E-04  0.57139296E-05 -0.21346663E-05 -0.16673658E-05 -0.85122719E-06
  0.78655928E-06  0.67542436E-06 -0.20052205E-06  0.94283551E-06  0.41322396E-06
 -0.53600427E-06 -0.10045873E-04 -0.38042039E-05  0.26773927E-04 -0.40827228E-04
  0.29580262E-04 -0.30626959E-05  0.15544261E-04 -0.15753442E-04 -0.14826071E-05
  0.10227743E-04 -0.76829053E-05 -0.23855104E-04  0.52646293E-04 -0.18017641E-04
  0.13149102E-04 -0.75392057E-05 -0.18477100E-04 -0.16478677E-04  0.17892676E-04
  0.53459247E-05  0.20104052E-04 -0.64938116E-04  0.55430857E-05  0.18660129E-04
 -0.26640267E-04  0.75664164E-05  0.50961649E-05 -0.12621751E-06  0.10802917E-05
 -0.12629965E-06 -0.56975317E-06  0.19277490E-06 -0.33828280E-06  0.26444519E-07
 -0.25548063E-06  0.22177875E-06 -0.29975101E-06  0.58453571E-06  0.39556221E-07
 -0.15500463E-06 -0.20415604E-06  0.56584958E-06  0.54112106E-06 -0.59090630E-06
  0.11218004E-06  0.66417194E-06 -0.44190622E-06  0.77136683E-06  0.22792534E-06
  0.26031753E-06  0.28920598E-06 -0.74736389E-06  0.23947510E-06  0.45619465E-07

 -0.39284693E-07  0.30300682E-05  0.32393346E-05  0.20927384E-05  0.91025818E-06
 -0.18409574E-05  0.21723130E-06  0.86863336E-06 -0.21408262E-05  0.37385324E-04
  0.18883865E-04  0.37776150E-04 -0.17825059E-04  0.22758447E-05  0.24548802E-04
 -0.31396434E-04 -0.20883531E-05 -0.13770636E-04  0.10327994E-04  0.44810615E-04
  0.61160286E-04 -0.18046240E-04  0.23886089E-05 -0.16860042E-04  0.27416716E-04
  0.42041249E-04  0.41449180E-03 -0.19529046E-05  0.15079791E-04  0.10908852E-04
 -0.55341645E-05 -0.10026267E-05 -0.11688159E-04  0.41683206E-05 -0.53709090E-06
 -0.17816150E-05 -0.25172135E-06 -0.10257000E-05 -0.25686016E-06 -0.82874780E-06
  0.66180419E-07 -0.40240813E-07  0.14967962E-06  0.14228535E-06  0.30049082E-07
  0.15324711E-05  0.98340403E-05 -0.22189275E-04  0.34748402E-05 -0.26419443E-04
 -0.78274704E-05 -0.61837577E-05  0.16924347E-04  0.14372973E-04 -0.79340157E-06
 -0.12786502E-04 -0.28841898E-04  0.15661736E-04  0.19612544E-04 -0.11456003E-04
  0.18697553E-05 -0.11601990E-04 -0.21176871E-04 -0.44620572E-06 -0.11831063E-05
 -0.12418813E-05 -0.11059425E-06 -0.75203485E-06 -0.74025744E-06  0.39691424E-07
 -0.19109535E-06  0.56176854E-06 -0.11181392E-06  0.42412922E-06  0.11820581E-05
 -0.46845521E-06 -0.44735549E-06 -0.18911172E-06  0.29161808E-06 -0.12249537E-06
 -0.23334848E-06  0.59493569E-07  0.70224525E-06  0.20974743E-06 -0.38306944E-06
 -0.26172998E-06 -0.30027962E-06  0.31747205E-06 -0.29271748E-06  0.32341267E-06
  0.43960725E-05  0.70998470E-06  0.22974412E-06  0.72767184E-05 -0.85320508E-05
 -0.17797626E-04 -0.55499885E-06  0.14255296E-04 -0.22273158E-04 -0.82694310E-07
  0.29902425E-06  0.32807592E-06 -0.81526258E-07 -0.48508447E-06 -0.46735013E-06
 -0.24651283E-06 -0.94311850E-07  0.80954387E-07  0.18713898E-05  0.85347567E-05
  0.75664624E-06  0.36125914E-05  0.71765317E-05 -0.72271567E-05  0.10797418E-04
  0.46006977E-05 -0.26321031E-04 -0.14430526E-05  0.26049802E-06 -0.21714690E-05
 -0.59607518E-06  0.45330512E-06 -0.46929365E-06 -0.56322080E-06 -0.23791797E-06
 -0.25115813E-06  0.25872804E-05 -0.15609056E-04  0.18043833E-04 -0.21480975E-04
 -0.18525416E-05  0.14655970E-04  0.29536580E-05 -0.31854888E-05  0.73402337E-05
  0.23033122E-05  0.35936871E-04  0.21487352E-04  0.16231191E-04  0.55643468E-04
 -0.17254655E-04  0.32434572E-04 -0.38761017E-04 -0.50041979E-04  0.10428075E-04
 -0.40219684E-04  0.44034695E-04  0.39428172E-06  0.52954430E-05 -0.16505630E-05
 -0.16688254E-04 -0.22004670E-04 -0.68999444E-04  0.66649243E-06  0.15457900E-05
  0.68763258E-06 -0.47961027E-06 -0.53744032E-06  0.14532297E-06 -0.13229320E-06
  0.77490225E-08 -0.31196476E-06  0.67499734E-06 -0.19498075E-05 -0.17030305E-06
 -0.32145891E-06 -0.16760706E-07 -0.64795599E-06 -0.48435147E-06 -0.26047211E-06
  0.74882772E-06  0.29312743E-06  0.13344982E-05  0.71475210E-06 -0.50422676E-06
 -0.13336707E-05 -0.13587191E-06  0.22781994E-06 -0.26628037E-06  0.39070968E-06

 -0.42214537E-07  0.33075896E-06 -0.14082473E-05  0.32880673E-06  0.31988901E-06
 -0.90161515E-06  0.22256801E-06 -0.86714318E-06  0.64389700E-06 -0.23333721E-05
  0.75899261E-07 -0.19783156E-04  0.85366713E-06 -0.33207854E-04 -0.13610376E-04
 -0.12583767E-04 -0.80602459E-05 -0.72537486E-05 -0.25099335E-04  0.12509282E-04
  0.88342538E-05  0.18251678E-04  0.13373333E-04 -0.12708901E-04  0.15861876E-04
  0.16686562E-04 -0.19529046E-05  0.36857184E-03  0.53515161E-04 -0.19214792E-04
 -0.30960872E-04  0.10474267E-04  0.18031848E-04 -0.13074998E-04 -0.29619994E-05
 -0.11780783E-04  0.99536216E-06  0.18091283E-05 -0.17764390E-06  0.49600887E-06
 -0.85783509E-06 -0.11839928E-06 -0.19288143E-06  0.38387040E-07 -0.10072133E-06
  0.83238020E-05 -0.45434656E-04  0.17756929E-05 -0.22879097E-04  0.29646094E-04
  0.11108241E-04 -0.27427391E-04  0.21682274E-04 -0.95672844E-05  0.94435563E-05
 -0.14398024E-04  0.34390026E-05 -0.33037729E-04 -0.38266612E-04  0.17624853E-04
 -0.14462509E-04 -0.13189598E-04 -0.10501691E-04  0.50885560E-06  0.49194888E-06
 -0.10506869E-05  0.32105943E-06  0.33074401E-06 -0.45377067E-06  0.72226683E-07
 -0.13713280E-06  0.12259270E-06  0.25133689E-06 -0.68649425E-06 -0.19473745E-07
 -0.27429711E-06 -0.13326468E-06  0.33747785E-07 -0.11144533E-06 -0.60342528E-06
 -0.33421155E-06 -0.39404676E-06 -0.33648552E-06  0.32321555E-06  0.39864552E-06
  0.15577582E-06  0.36244581E-07 -0.47307452E-06  0.46575609E-06  0.34032624E-06
  0.12624809E-04  0.21253215E-04  0.77318069E-05 -0.84567139E-05  0.89842082E-05
 -0.31880720E-05  0.71318869E-06 -0.89737425E-05 -0.16119918E-04 -0.55053803E-06
 -0.91876230E-06 -0.29547885E-06 -0.11160045E-05  0.25668848E-06  0.27819502E-06
 -0.27545969E-06  0.31051599E-06 -0.18445224E-06 -0.90514631E-05  0.32953275E-04
 -0.10837735E-04  0.75587865E-05 -0.27265013E-04  0.48163030E-05  0.47495388E-04
  0.22895907E-04  0.10663781E-04 -0.21854631E-05 -0.18919693E-05  0.69877925E-06
 -0.29926762E-07 -0.46697770E-06  0.81548792E-06  0.57072421E-07  0.47874894E-07
  0.19402836E-06 -0.11275781E-04  0.12173203E-04 -0.12134627E-04 -0.28183719E-04
  0.23504112E-05  0.30137159E-04 -0.20264840E-05  0.32664138E-04  0.34161287E-05
  0.65369443E-04  0.14372638E-05 -0.10956144E-04  0.61813748E-04 -0.18315199E-04
  0.27740336E-04  0.98438952E-06  0.24129528E-04  0.17895997E-04 -0.59735982E-05
 -0.64127508E-05 -0.12434540E-04  0.84215800E-05  0.19589477E-04 -0.17898280E-04
  0.27981354E-04  0.24221793E-04  0.24450432E-04 -0.93007062E-06  0.37532896E-06
  0.92700287E-06  0.14445659E-06 -0.67232919E-07 -0.13617968E-06 -0.47412330E-06
 -0.19325044E-06 -0.26272530E-06 -0.67509439E-06  0.62341819E-06  0.24734414E-06
 -0.10461016E-05  0.17770813E-06  0.52605012E-06  0.28664333E-06  0.13750203E-06
 -0.70362167E-06  0.75795149E-06  0.62552888E-06 -0.73437383E-07  0.13545950E-07
  0.32981306E-06  0.14046394E-06  0.37422921E-06  0.57663775E-06  0.53572575E-07

 -0.24854232E-06  0.37672930E-06 -0.20418454E-05  0.62138232E-06  0.72199810E-06
 -0.90699017E-06  0.68768157E-07  0.58250297E-06  0.53866318E-06 -0.37646324E-05
 -0.22034039E-06 -0.15040940E-04  0.33289476E-05  0.40017245E-04  0.16125636E-05
  0.26457894E-04  0.91655427E-06 -0.30836855E-04 -0.21132338E-04 -0.29530829E-04
 -0.68049249E-05 -0.10179194E-05 -0.80287707E-04 -0.43677200E-05 -0.22630844E-04
  0.19090202E-04  0.15079791E-04  0.53515161E-04  0.40410738E-03 -0.12165237E-04
 -0.86901956E-05  0.13826305E-04  0.23263894E-04 -0.21968888E-04 -0.25870308E-05
 -0.28455686E-06 -0.82011919E-07  0.23295738E-06  0.36835006E-07  0.34526797E-07
 -0.73957555E-07  0.20809138E-06  0.12944218E-06  0.24209606E-08 -0.14523643E-06
  0.30730448E-05  0.29514560E-05  0.95935750E-05 -0.15602379E-04  0.27775467E-04
  0.58165311E-05 -0.32537713E-04  0.58226655E-05  0.50620538E-06 -0.12875772E-04
 -0.11256131E-04 -0.41282996E-05 -0.13150121E-04  0.46019647E-04  0.30367458E-05
  0.42750123E-04  0.64422026E-05  0.12890425E-04  0.37075979E-06  0.11431916E-05
 -0.19857925E-06  0.19515045E-06  0.26106423E-06 -0.18077126E-06 -0.20600062E-06
 -0.11063842E-06 -0.65933863E-07  0.43442200E-07 -0.11596556E-05 -0.46153069E-06
  0.27311340E-06 -0.49459571E-06  0.26169923E-06  0.42569391E-06 -0.33377078E-07
 -0.19229145E-06 -0.11943630E-06 -0.11311487E-05  0.48026030E-06 -0.27834053E-06
  0.67581691E-06  0.46434540E-07 -0.10807240E-05  0.36791705E-07  0.31681575E-06
 -0.19660918E-05  0.17471543E-04  0.37222025E-05 -0.83276696E-05  0.38280726E-04
 -0.40365760E-05  0.10168766E-04  0.17974025E-05 -0.16021212E-04 -0.11834678E-08
 -0.63642653E-06  0.92463251E-07 -0.30153912E-06 -0.15706443E-06  0.35214502E-06
 -0.74006334E-06  0.12761442E-06  0.42614004E-06 -0.90064707E-06 -0.30974543E-05
  0.70403620E-05  0.11359292E-04  0.72035943E-05 -0.12437673E-05  0.16849561E-04
  0.22860560E-05  0.19245439E-04 -0.18834207E-05 -0.64718215E-06 -0.31545441E-06
  0.15187237E-05 -0.20126593E-05  0.10233702E-06 -0.91943270E-06 -0.13768479E-06
 -0.13603625E-06 -0.34065865E-05 -0.13878678E-04  0.73144034E-05 -0.17312340E-04
 -0.35920104E-05  0.20905427E-04 -0.19028858E-04  0.21719511E-04 -0.23568919E-05
 -0.42739839E-04 -0.46639170E-04 -0.54756965E-05  0.44660124E-04  0.35397743E-04
  0.21497076E-04 -0.75928829E-05  0.45866957E-06  0.29473230E-04  0.85888272E-05
 -0.55401389E-04  0.18149831E-04 -0.21851482E-04  0.86832944E-04 -0.44514126E-05
  0.17352804E-04 -0.11039071E-04 -0.32578974E-04  0.16719444E-06 -0.96984536E-06
 -0.36915435E-06 -0.24009315E-07  0.11185630E-05 -0.17137405E-06  0.16616976E-06
  0.83768379E-08  0.21398317E-06 -0.55156118E-06 -0.35464240E-06  0.54674616E-08
 -0.51531668E-07  0.13685975E-07  0.18533502E-06 -0.10954569E-06 -0.86019911E-07
 -0.10665796E-05 -0.18963181E-06  0.91578474E-06  0.45550858E-06 -0.69203931E-07
 -0.83887524E-07  0.27012748E-06 -0.43505330E-06  0.31676456E-06  0.10920683E-06

 -0.25717405E-05 -0.23419770E-05  0.25137233E-05 -0.19060741E-05  0.69563372E-06
  0.17596482E-05 -0.42665637E-06 -0.14488094E-05 -0.28658226E-05 -0.27504411E-04
  0.53018120E-05 -0.58861987E-04  0.32226201E-04  0.24806751E-04 -0.34912483E-04
  0.40285275E-04  0.22111912E-04 -0.15387201E-04 -0.28409795E-05  0.29289148E-04
  0.70260270E-04 -0.51647764E-04 -0.18764213E-04  0.93649523E-05 -0.43321272E-04
 -0.10815211E-04  0.10908852E-04 -0.19214792E-04 -0.12165237E-04  0.34853211E-03
  0.53657795E-04  0.17768462E-04 -0.59873385E-04  0.35729991E-04  0.11560332E-04
  0.42271937E-04  0.28846574E-06  0.51899585E-06  0.16565786E-06  0.94967443E-06
 -0.45286086E-06 -0.39886472E-06  0.10702097E-06 -0.63943636E-08  0.18306070E-06
  0.74049200E-05  0.15278598E-04 -0.35978078E-04 -0.48302285E-05 -0.17058406E-04
  0.18178440E-04 -0.40432868E-05 -0.12151228E-04  0.31296739E-05 -0.12558263E-04
  0.17821834E-05  0.72863586E-05 -0.46595727E-04  0.40326542E-04  0.10873413E-04
  0.66442728E-05  0.39540826E-05  0.24963251E-05 -0.87344300E-06 -0.89043258E-06
  0.20619426E-06 -0.25126286E-07  0.70803413E-06  0.24879798E-06 -0.16974312E-06
  0.33650603E-07 -0.19092206E-06 -0.24580322E-06  0.81115926E-06 -0.40535182E-06
  0.45915751E-06  0.33385207E-06  0.52144976E-06  0.59050619E-07  0.18815775E-06
  0.24366813E-07  0.19706969E-06 -0.50868743E-06 -0.77374219E-06  0.93062813E-07
 -0.87970854E-07 -0.43418714E-06 -0.27609434E-06 -0.61928855E-07  0.81636136E-07
  0.12024756E-05 -0.99198768E-05  0.26774112E-04 -0.76531522E-05  0.85413108E-05
 -0.95482092E-05  0.12788999E-04  0.88514978E-05  0.51074700E-05 -0.13021264E-06
  0.84007409E-06  0.18309055E-06  0.29112144E-06  0.66752385E-06 -0.61093496E-06
 -0.11579739E-06 -0.12052079E-06 -0.33987196E-06 -0.33323697E-05 -0.31584143E-04
  0.13469223E-04  0.64960919E-05 -0.13772571E-04  0.13144079E-04 -0.14353014E-04
  0.13328565E-04 -0.25148396E-05 -0.27689944E-05 -0.25036017E-05  0.33972989E-06
  0.17260134E-05  0.14779015E-06 -0.10333030E-05  0.25648698E-06  0.10685593E-05
  0.16184883E-05 -0.66222012E-05 -0.31937755E-04 -0.64305356E-04 -0.26671714E-04
  0.52147125E-04 -0.40897576E-04 -0.23629124E-04 -0.10258609E-05  0.63145518E-05
  0.67941292E-05  0.17288297E-04  0.93861084E-04 -0.69201265E-04 -0.47155802E-04
  0.20648575E-05 -0.56267239E-04 -0.10201003E-03 -0.73067601E-04  0.35705650E-05
  0.21305823E-05  0.55607519E-04 -0.19557539E-04  0.39343186E-04 -0.23358550E-04
 -0.37726726E-05  0.86705428E-06 -0.11522785E-04  0.48896680E-07  0.10452581E-06
 -0.17446297E-06  0.68455792E-06 -0.13043020E-06  0.83978564E-06  0.18877317E-06
  0.31540284E-06  0.16861359E-06 -0.72118736E-06 -0.24708018E-06 -0.60548600E-06
  0.21040719E-06 -0.17874544E-06 -0.32845347E-06 -0.28902606E-06 -0.20455409E-06
  0.24776331E-06 -0.57854575E-06 -0.31746129E-07 -0.26899621E-07 -0.27420759E-06
  0.37666204E-06  0.30493802E-06  0.11084859E-06  0.26797959E-06  0.30427945E-06

 -0.18149870E-05 -0.88020012E-06  0.18779404E-05 -0.31015461E-06  0.25206076E-07
  0.79251069E-06  0.10181296E-05 -0.13673144E-05 -0.10785671E-05  0.22728219E-04
 -0.10320363E-04 -0.44485526E-05  0.14605449E-04 -0.22831777E-04 -0.18719225E-04
  0.36255700E-04  0.19407613E-04  0.21122819E-04 -0.47390613E-04  0.10778633E-04
  0.11468545E-04 -0.50183994E-04 -0.42881620E-06  0.10753526E-04  0.61314644E-05
 -0.12282330E-04 -0.55341645E-05 -0.30960872E-04 -0.86901956E-05  0.53657795E-04
  0.49388611E-03 -0.10705918E-03 -0.14504549E-03  0.31172590E-04 -0.34883104E-05
  0.10616437E-04  0.61986405E-06 -0.14196040E-05 -0.13027213E-06  0.46309048E-06
 -0.90489039E-07  0.11335338E-06  0.90743340E-06 -0.78463773E-07  0.44098469E-06
 -0.26285754E-04  0.67114160E-04 -0.25358687E-04 -0.17482315E-04  0.24349953E-04
 -0.49346758E-05 -0.13828493E-04 -0.86805374E-05 -0.12064528E-07  0.36189004E-04
 -0.36479525E-05  0.90046691E-05 -0.43511278E-04  0.28329459E-04  0.11328448E-05
  0.11728085E-04  0.32651222E-04 -0.13511669E-05 -0.14230451E-05 -0.56185839E-06
 -0.74351023E-07 -0.34992897E-07  0.21928618E-07  0.43089878E-06 -0.38563383E-06
  0.94728016E-07 -0.12000339E-06 -0.92257550E-06  0.57596456E-06  0.63165295E-06
 -0.18011405E-06  0.55664170E-07  0.72993117E-06  0.19978185E-06 -0.24325527E-06
 -0.11789086E-06  0.18080871E-08 -0.43689871E-06 -0.32561047E-06  0.32877047E-06
  0.17767111E-06 -0.35804869E-08  0.54263047E-06  0.46469846E-06 -0.26624190E-06
  0.40422542E-04 -0.41799686E-05 -0.44058173E-05 -0.26779869E-05 -0.17075005E-04
 -0.68089444E-05  0.66398375E-05 -0.25243561E-05 -0.19441157E-04 -0.20397693E-06
 -0.19401828E-05  0.53143197E-06 -0.56445660E-06  0.81356522E-06  0.45823628E-08
  0.13251101E-05 -0.13350522E-06  0.10188647E-06  0.19007443E-04 -0.46300178E-05
 -0.88092100E-05 -0.56321486E-06  0.70826780E-05  0.20459981E-04 -0.31136841E-04
  0.90790064E-05  0.16586446E-04 -0.26763889E-05 -0.15084445E-05  0.59589703E-06
  0.33094278E-06  0.24153056E-06 -0.16167752E-06  0.33327942E-06 -0.11994188E-07
 -0.68516978E-06  0.13038109E-04 -0.31186861E-04 -0.23652313E-04  0.24646226E-04
  0.33091694E-04 -0.16867097E-04 -0.67587842E-04 -0.62657668E-04  0.12850416E-05
 -0.89140485E-05 -0.16709351E-04 -0.65399936E-05  0.12933187E-03 -0.38561847E-04
  0.25207953E-04  0.12334644E-04 -0.12449617E-04  0.71650909E-05  0.31341448E-04
  0.10080880E-04  0.31663283E-04 -0.35758088E-04 -0.47560108E-04  0.17620841E-04
 -0.34568577E-04 -0.40689754E-04 -0.15356905E-05 -0.27434273E-06 -0.33847940E-06
 -0.64915168E-06  0.70040013E-06  0.21014716E-06  0.26994212E-06  0.13932856E-06
  0.38559610E-06  0.37852869E-07  0.35262755E-07  0.28206450E-06  0.11787626E-06
  0.95862390E-06  0.27723199E-06  0.10582735E-06  0.53556031E-06  0.18151003E-08
 -0.42143707E-06 -0.13196259E-05 -0.14794226E-06 -0.10761745E-06  0.63149955E-06
  0.66095780E-06  0.12370865E-06 -0.19582858E-06 -0.51244531E-06  0.28675694E-06

  0.23659381E-06 -0.28144730E-05  0.10911427E-05 -0.19383763E-06  0.21155662E-05
 -0.79833208E-06  0.66493490E-06 -0.32514328E-07 -0.16931493E-05 -0.88487497E-05
  0.15394587E-04 -0.12686656E-04 -0.12669077E-04  0.11118520E-04  0.70227012E-05
 -0.11886425E-04  0.58401700E-05 -0.10214353E-04 -0.99192069E-05  0.47230982E-04
  0.13867606E-04 -0.70896021E-05 -0.51275258E-04  0.13744499E-04 -0.37992292E-04
 -0.10204531E-05 -0.10026267E-05  0.10474267E-04  0.13826305E-04  0.17768462E-04
 -0.10705918E-03  0.53555134E-03 -0.10683705E-03  0.24644377E-04  0.20146409E-04
  0.35671283E-04  0.32882069E-06  0.20102817E-06  0.97850887E-07  0.30074961E-06
 -0.48864695E-06  0.11962991E-07 -0.59301362E-06  0.21279316E-06 -0.18678649E-06
  0.42254723E-05 -0.60512166E-04  0.15860204E-04  0.14251309E-04  0.13678174E-04
  0.72635307E-05  0.88323637E-05 -0.45840095E-05 -0.17614205E-04 -0.43026997E-05
 -0.50561100E-05  0.12430515E-04  0.58987394E-05 -0.63350816E-07 -0.24984914E-05
  0.18654946E-04 -0.10270850E-04  0.61086408E-05 -0.39877841E-06  0.87431431E-06
 -0.14813724E-06 -0.48630813E-06  0.90876140E-06 -0.31828515E-07  0.25789778E-06
 -0.61855776E-07 -0.74106229E-06  0.77697450E-06 -0.65252025E-06  0.34371384E-06
 -0.16527683E-06 -0.73009273E-07  0.22083190E-06  0.73345813E-06 -0.33528318E-07
  0.96751079E-07 -0.66700758E-07  0.21490733E-05 -0.23634056E-06 -0.52730459E-07
  0.48986958E-06  0.11272917E-06 -0.39969065E-06 -0.45333885E-06  0.39379034E-06
 -0.15794470E-04  0.23460692E-04  0.70980103E-05 -0.44332698E-05  0.11447576E-04
  0.14311069E-04 -0.14676804E-04 -0.42726791E-06  0.27990720E-04 -0.61012608E-06
  0.17384058E-05 -0.22427801E-06  0.21806574E-06 -0.13250496E-05  0.17956321E-06
  0.43670214E-06 -0.89139652E-07  0.30395182E-06 -0.14069658E-04 -0.16286886E-04
 -0.29333156E-05 -0.12482324E-04 -0.45167112E-04  0.93831849E-06  0.16401535E-04
  0.17596532E-05 -0.13688549E-05  0.16675893E-05 -0.42153803E-06 -0.58947726E-06
 -0.19162377E-06 -0.16308889E-05  0.54335784E-06 -0.15653133E-05 -0.83888716E-07
  0.92414986E-06  0.19154771E-04  0.12988730E-04 -0.18066767E-05  0.22145527E-04
 -0.38411918E-04 -0.22571217E-04  0.59839928E-05  0.27904217E-04  0.23370927E-04
  0.37857167E-04 -0.35257110E-05 -0.55903550E-05 -0.82732186E-05  0.15339247E-03
 -0.41329073E-04  0.33132302E-04 -0.70052631E-05  0.45759846E-05  0.10695517E-05
  0.69139390E-05 -0.53296874E-05 -0.82797381E-05  0.12245669E-03 -0.30497857E-04
  0.93190605E-04  0.10569208E-04  0.16274084E-04  0.20224365E-06 -0.95979476E-06
  0.50847820E-07  0.26231229E-06 -0.85583403E-06  0.46541527E-07 -0.83210897E-07
 -0.43813187E-06 -0.34021051E-07 -0.10230314E-06 -0.91309258E-07  0.27666431E-06
  0.26182819E-07  0.65478765E-06  0.25725920E-07 -0.20980149E-06 -0.14640167E-06
 -0.40563674E-07  0.31128748E-06 -0.98345281E-06 -0.19686537E-07  0.38593633E-06
 -0.77166753E-06 -0.88142990E-07  0.31676478E-06  0.12383682E-06  0.18983072E-06

  0.19518848E-05  0.32028471E-05 -0.25002380E-05  0.65370079E-06 -0.22564951E-05
  0.17466920E-05 -0.97369308E-06  0.80535602E-06  0.22483369E-05  0.11897965E-05
  0.18947750E-04 -0.18265422E-05 -0.99513711E-05  0.17672324E-04  0.88177463E-05
 -0.38942728E-05 -0.31234772E-04 -0.29601372E-05 -0.87327505E-05 -0.38842257E-04
 -0.63275785E-04  0.20550255E-04  0.22009169E-04 -0.86655573E-05  0.10633339E-04
  0.11105803E-04 -0.11688159E-04  0.18031848E-04  0.23263894E-04 -0.59873385E-04
 -0.14504549E-03 -0.10683705E-03  0.40398720E-03 -0.23429406E-04 -0.10206539E-06
  0.28702158E-04 -0.33869926E-06 -0.32952143E-06  0.14154042E-06  0.26914031E-07
  0.19980139E-06 -0.45014705E-06  0.37873090E-06 -0.47871050E-06  0.27034519E-06
  0.66322278E-05 -0.19038359E-04  0.26982980E-04 -0.22006374E-04  0.11860566E-04
  0.91011810E-05 -0.12223238E-04  0.15798170E-05 -0.18459748E-04 -0.33596632E-04
  0.11018903E-04 -0.38368751E-04 -0.78207043E-05 -0.85518704E-05  0.40749620E-05
  0.77275716E-06  0.62303735E-06  0.14704403E-04 -0.18909889E-06  0.49949144E-06
  0.45631142E-06 -0.75097378E-07  0.20542928E-06 -0.84501791E-07 -0.50443865E-07
 -0.34284124E-06  0.15198099E-06  0.28320379E-06 -0.41989435E-06 -0.63547325E-06
  0.39698460E-06  0.10207627E-06 -0.10438061E-05  0.29904827E-06 -0.59230856E-06
  0.13612644E-06  0.11722212E-05  0.54785265E-06  0.11518989E-05 -0.32232521E-06
  0.15868605E-06 -0.18840572E-06 -0.30670336E-06  0.25581409E-06  0.14384713E-06
 -0.11563691E-04 -0.11026804E-04 -0.34248343E-04 -0.22462618E-04  0.16841168E-04
 -0.13758232E-04  0.60754316E-05  0.16155904E-04 -0.13193831E-04  0.14862462E-06
  0.29884872E-06  0.10723144E-05  0.10040999E-06 -0.26000447E-06  0.84901109E-07
 -0.21127558E-06 -0.39473491E-06 -0.97243980E-07  0.44993816E-05  0.20452255E-04
 -0.33242327E-05  0.24182257E-05  0.16028827E-04 -0.33900717E-04 -0.29722535E-05
 -0.16992269E-04 -0.11868832E-04 -0.14169018E-05 -0.21964642E-08 -0.18721595E-06
  0.54710811E-06  0.71559608E-06 -0.15985669E-05  0.91589170E-06 -0.48340485E-06
 -0.41074680E-06 -0.21659435E-04  0.12767679E-04  0.49248501E-05 -0.23643217E-04
 -0.19843608E-04  0.68361301E-04 -0.59513651E-05 -0.13893277E-04 -0.55563382E-05
 -0.41026090E-04 -0.14604436E-04  0.46436706E-04  0.28407643E-04 -0.14135924E-04
 -0.33229454E-04  0.24927213E-04  0.13875120E-04 -0.76213052E-05 -0.15280481E-04
 -0.30355557E-04 -0.18270286E-04  0.15256575E-04 -0.13778632E-04  0.12237149E-05
  0.56235855E-05  0.95814765E-06  0.16492805E-04 -0.45882517E-06 -0.11403241E-06
  0.91832215E-06 -0.63485329E-06 -0.23805143E-07  0.42798465E-06 -0.11215718E-06
  0.24503973E-06 -0.11228169E-06 -0.40539031E-06  0.30453985E-06 -0.12890562E-05
 -0.25673103E-07 -0.60946270E-06 -0.33629477E-06  0.51295475E-07 -0.64891435E-07
  0.44869696E-06  0.99347603E-06  0.17470498E-07  0.13569692E-05 -0.14233105E-06
 -0.45379867E-06  0.68114054E-07 -0.82080239E-07 -0.14897580E-06 -0.27519913E-06

  0.10839710E-06  0.77320381E-06 -0.86732813E-06  0.21781309E-06  0.35488872E-06
 -0.49355952E-06 -0.17967157E-06 -0.74938341E-06 -0.23545192E-06  0.56535752E-05
  0.27276693E-04  0.10660779E-04 -0.13638063E-04  0.23825064E-04 -0.13801984E-04
 -0.24172779E-05  0.27356613E-04 -0.44673996E-05  0.43745987E-04  0.21000576E-04
  0.84959352E-06 -0.29248519E-04  0.91328457E-05  0.69192986E-05 -0.14501580E-04
 -0.57440874E-05  0.41683206E-05 -0.13074998E-04 -0.21968888E-04  0.35729991E-04
  0.31172590E-04  0.24644377E-04 -0.23429406E-04  0.38953292E-03  0.10966581E-04
 -0.22627751E-05  0.36156705E-06 -0.60358048E-06 -0.62849769E-06  0.69698007E-06
 -0.25965749E-06  0.11808245E-06 -0.54932591E-06 -0.50012708E-06 -0.61999524E-06
  0.14554290E-04 -0.31673799E-05 -0.28327269E-04  0.16419331E-05 -0.19473804E-04
  0.74224216E-05 -0.22542097E-04 -0.11674498E-05  0.32334198E-05  0.10248567E-04
 -0.69810583E-05 -0.21531858E-05 -0.12179512E-04  0.16886157E-04 -0.71951699E-05
 -0.50356301E-04 -0.88271806E-05  0.81083207E-06 -0.64193491E-06 -0.34372342E-06
  0.19307653E-06 -0.16096291E-06 -0.17206779E-07  0.14527856E-06 -0.10540570E-06
  0.33341664E-06  0.20033429E-06 -0.28599922E-06 -0.67807017E-07  0.21300423E-06
  0.28352472E-06 -0.73717961E-06  0.47896858E-07  0.55543124E-06 -0.27799562E-06
  0.26967274E-06 -0.17322968E-06  0.36228878E-06 -0.17271085E-06 -0.16879237E-07
 -0.85344832E-07 -0.50598771E-07 -0.21092504E-06  0.15942548E-06  0.22372010E-06
  0.15896811E-04  0.23738713E-04 -0.39356220E-05  0.64802173E-06 -0.25583470E-04
 -0.21249623E-07 -0.13703312E-04  0.42425249E-05  0.90363900E-05  0.59490992E-06
 -0.17422569E-06 -0.24653491E-06  0.31695232E-06  0.78119081E-06 -0.15368237E-06
  0.11604335E-05 -0.18992040E-06 -0.29143825E-06 -0.10169582E-04 -0.87259154E-05
  0.56343997E-05 -0.13686224E-04  0.12612106E-04  0.33008831E-05 -0.17453141E-04
  0.12494012E-04 -0.11499227E-05 -0.68936166E-06 -0.41865021E-06 -0.13862408E-05
 -0.18071287E-06  0.43937040E-06  0.54260060E-07  0.15680957E-05  0.11647654E-05
  0.30344998E-06 -0.34836603E-05 -0.25762543E-04  0.10921912E-04 -0.13531128E-04
  0.92186508E-05  0.61150683E-05 -0.43388267E-04 -0.17134647E-04  0.46257817E-04
  0.37024871E-05 -0.49324374E-04  0.18862628E-04 -0.21017771E-04  0.44922638E-05
  0.20571086E-05 -0.47949533E-04 -0.54177594E-04 -0.18926374E-04  0.28627588E-04
  0.10768595E-04  0.23973060E-04  0.34624015E-04 -0.15454145E-04  0.71283721E-05
  0.12387538E-04 -0.21622115E-04 -0.60210646E-05 -0.41205126E-06  0.83725984E-06
  0.22707271E-06  0.74905472E-07  0.92945688E-06 -0.57676890E-07 -0.63543166E-06
  0.70961297E-07  0.13735678E-06  0.17398737E-06 -0.76677675E-06 -0.19235559E-07
  0.33139595E-06 -0.66441001E-07 -0.33864117E-06  0.99126257E-07 -0.40249072E-06
  0.43640660E-06 -0.13597525E-05 -0.60241293E-06  0.20711920E-06 -0.13509973E-07
  0.68956323E-06 -0.83045846E-07  0.32448164E-06 -0.55088907E-07  0.30334681E-06

  0.35771757E-06 -0.16464490E-05  0.67157457E-06 -0.17635486E-05  0.79571490E-06
  0.12339046E-05 -0.12362635E-05  0.13229692E-05 -0.17980382E-05 -0.32099671E-04
 -0.33777158E-04  0.35122407E-04  0.23624005E-04 -0.41099969E-04 -0.77459377E-05
  0.42766172E-04  0.30487326E-05  0.80243168E-05  0.29197853E-04  0.18969761E-04
  0.38060872E-04 -0.57179384E-05  0.77360009E-05 -0.11523477E-04  0.13573819E-04
  0.23240958E-04 -0.53709090E-06 -0.29619994E-05 -0.25870308E-05  0.11560332E-04
 -0.34883104E-05  0.20146409E-04 -0.10206539E-06  0.10966581E-04  0.27584335E-03
  0.30090430E-04  0.63054107E-06 -0.73104249E-06 -0.68470850E-06  0.65422653E-06
 -0.25989013E-06  0.74172968E-07 -0.50515179E-06  0.32583504E-06 -0.55328733E-07
 -0.10453145E-04 -0.79584509E-05  0.24423339E-05  0.58413188E-05  0.17057946E-04
 -0.76540862E-05 -0.19342884E-04  0.96805794E-05 -0.41128993E-06  0.18356089E-04
  0.85027671E-05  0.17108117E-04 -0.44511054E-04  0.21823125E-04 -0.50613517E-05
  0.77976921E-05  0.31020307E-05  0.12650224E-04  0.50278173E-06 -0.27599014E-06
  0.34823722E-06  0.20655158E-07  0.16017125E-06 -0.18851072E-06  0.25307009E-06
  0.19467541E-06 -0.12952765E-06 -0.54183096E-06 -0.26159367E-06  0.33645581E-06
 -0.19524527E-06 -0.20401698E-07  0.16126144E-06 -0.22662975E-06  0.38104938E-06
  0.42230033E-06  0.54097091E-06 -0.14302328E-06 -0.20978675E-06 -0.30246829E-06
 -0.11542207E-06  0.21100001E-06  0.11163949E-06 -0.26981506E-06 -0.16266396E-06
  0.15010489E-04  0.10373125E-04 -0.99776988E-05 -0.76447472E-05 -0.58841206E-05
  0.72055725E-06 -0.12681216E-05  0.22296110E-05  0.80577192E-05 -0.12558301E-05
  0.15359302E-06 -0.57700532E-06  0.19701211E-06 -0.18163756E-06  0.16560112E-06
  0.16013009E-06  0.21317033E-06  0.16717634E-06 -0.20327499E-05  0.39817538E-05
  0.84409168E-06  0.17137049E-04  0.45160266E-07 -0.60205420E-06 -0.25295685E-04
  0.18491236E-04 -0.47738907E-05  0.27451758E-05  0.24867840E-06 -0.16186222E-05
  0.28274134E-06 -0.42342016E-06 -0.65161224E-06 -0.21318109E-06  0.13143415E-05
  0.16086651E-05  0.50855299E-04  0.21836057E-04  0.27205619E-04  0.42701165E-04
 -0.77874589E-05  0.70133438E-04 -0.23640744E-04 -0.43478976E-04  0.10812045E-04
  0.17465099E-04  0.11813554E-04  0.11744772E-06 -0.46176964E-04 -0.20535603E-06
  0.95463581E-05 -0.32379151E-04 -0.66086732E-04 -0.55233496E-05 -0.14875631E-04
 -0.43125475E-05  0.21094577E-04 -0.35630107E-04 -0.69640547E-05  0.17894688E-04
 -0.13523763E-04 -0.13512731E-04 -0.30117167E-04  0.24248920E-06  0.65779675E-06
 -0.87447870E-06  0.98619827E-07 -0.18984270E-06 -0.83811020E-07 -0.12604749E-06
 -0.45190124E-06  0.30008888E-06 -0.91034249E-06  0.36742268E-07  0.66684991E-06
 -0.18560093E-06 -0.54944167E-06  0.22369860E-06  0.29419683E-06 -0.48683517E-06
  0.24818685E-06  0.76614439E-06 -0.91339549E-07  0.32078699E-06 -0.13983519E-06
  0.36997946E-06 -0.22713316E-06 -0.54201892E-06  0.26642286E-06 -0.15627627E-06

 -0.15484294E-05 -0.57472264E-06  0.26623458E-05 -0.89460063E-06 -0.21019314E-05
  0.23285060E-05  0.45285936E-07 -0.82459938E-06 -0.65150758E-06 -0.26902015E-04
 -0.36098360E-05  0.13316072E-05  0.15248173E-04  0.22618739E-04 -0.13505337E-04
  0.10420354E-04 -0.16256390E-04  0.10297115E-04  0.18484039E-05  0.40040196E-04
  0.16066887E-04 -0.11230691E-04 -0.21542964E-05 -0.26550182E-05 -0.72357614E-05
  0.21031298E-05 -0.17816150E-05 -0.11780783E-04 -0.28455686E-06  0.42271937E-04
  0.10616437E-04  0.35671283E-04  0.28702158E-04 -0.22627751E-05  0.30090430E-04
  0.31239966E-03  0.43554201E-06  0.11454202E-05 -0.74691091E-06  0.27542416E-06
 -0.16159460E-06 -0.28599404E-07  0.88865656E-07 -0.23138444E-06 -0.62900285E-07
  0.14220386E-05 -0.75338342E-05  0.22945924E-08  0.21660289E-06 -0.31232932E-05
 -0.91452396E-07  0.35427288E-05  0.66151080E-05 -0.28287796E-04 -0.99105398E-05
 -0.10893690E-04  0.41636895E-05 -0.62485635E-05  0.95278870E-05 -0.13123154E-04
  0.20824693E-04 -0.49948526E-06  0.92699403E-06 -0.13902569E-06  0.64349414E-06
 -0.53046822E-06 -0.28788606E-06  0.12382791E-05  0.18325853E-06 -0.14655439E-06
 -0.20608545E-06 -0.92514524E-06  0.35257719E-06 -0.42050923E-06  0.45874800E-06
 -0.35996613E-07 -0.42314766E-07  0.14143852E-06  0.14451593E-07  0.10441794E-06
  0.13689538E-06  0.22418892E-06  0.39611285E-06 -0.64252238E-07  0.27603323E-06
  0.35725318E-06 -0.15133458E-06 -0.44376660E-06  0.15408729E-06 -0.61794203E-06
 -0.20013341E-05 -0.53387289E-05 -0.70148347E-05  0.19306171E-05 -0.56135060E-05
 -0.16989902E-05 -0.20715207E-04  0.29820558E-05  0.28148982E-04  0.14496207E-06
  0.59047240E-06 -0.96624732E-07  0.29148879E-06  0.44566566E-06  0.10919309E-06
 -0.63935057E-07  0.66355566E-07 -0.55947110E-06  0.35889585E-05 -0.72864857E-05
  0.26941052E-05 -0.76203480E-05  0.86414032E-05 -0.99757709E-05 -0.11826157E-04
 -0.15814743E-04  0.80390935E-05  0.27552899E-06 -0.22510668E-06 -0.34679932E-06
 -0.91643921E-06  0.88059994E-06 -0.41510773E-06 -0.87017419E-06  0.23645677E-06
  0.70734904E-06  0.50071706E-05  0.24559331E-04 -0.74456272E-05 -0.18496812E-05
  0.32813281E-04  0.22505449E-05 -0.37385781E-05 -0.69962507E-06  0.18178322E-04
  0.22974039E-04 -0.20811468E-04  0.21330458E-04  0.35180576E-04  0.82673085E-06
 -0.21338967E-04  0.65710070E-05 -0.12006442E-04 -0.49229161E-04  0.22140616E-04
  0.11069018E-05  0.31112628E-04 -0.56522554E-05  0.40543180E-04  0.43393911E-05
  0.41191218E-04  0.10758888E-04 -0.25854274E-04 -0.28947475E-06 -0.21547074E-06
  0.86060480E-06 -0.32062379E-06  0.10204916E-05  0.18351975E-06 -0.41810510E-06
  0.20858511E-06  0.26756241E-06 -0.80437377E-06  0.42591456E-06  0.30716491E-06
  0.64871930E-06 -0.92310683E-06 -0.20436449E-06 -0.41984448E-06 -0.17308001E-07
  0.70056058E-07  0.35374219E-06 -0.11233161E-05  0.34439925E-06  0.79585485E-07
 -0.30317463E-07  0.21550197E-06 -0.36559592E-06 -0.31635997E-06  0.72819811E-06

  0.51521843E-07 -0.47700227E-07 -0.15322927E-07 -0.18397155E-07 -0.79436994E-08
  0.11767425E-07 -0.17392669E-07 -0.23916045E-07  0.18946879E-07 -0.12730837E-06
 -0.34601621E-06  0.97289593E-07  0.88140865E-06  0.61707174E-07 -0.62319240E-06
  0.11197356E-05 -0.33150346E-06 -0.40273759E-06 -0.79351256E-07 -0.73783205E-06
 -0.33400990E-06  0.39959493E-06 -0.43104693E-06 -0.36891199E-06 -0.24547026E-06
  0.53804774E-06 -0.25172135E-06  0.99536216E-06 -0.82011919E-07  0.28846574E-06
  0.61986405E-06  0.32882069E-06 -0.33869926E-06  0.36156705E-06  0.63054107E-06
  0.43554201E-06  0.93791127E-06  0.13642121E-06 -0.60943090E-08 -0.42920496E-07
  0.86900823E-08  0.66602774E-10 -0.65980135E-07 -0.11221531E-07 -0.40353834E-08
  0.21837468E-05 -0.96274533E-06  0.80683219E-06  0.24185686E-05 -0.99386042E-06
 -0.20166996E-05  0.61885752E-06  0.24249214E-05  0.68614699E-06  0.44477438E-06
  0.93542715E-06 -0.59895546E-06 -0.11097950E-05 -0.15844985E-07 -0.73061533E-06
 -0.33232889E-06 -0.61593671E-06  0.31569511E-07  0.81788388E-07  0.16310466E-07
  0.18988624E-07 -0.13953243E-08  0.11759075E-07 -0.13124993E-08 -0.43248270E-07
  0.96902614E-08 -0.22187064E-07 -0.16424061E-07 -0.18323211E-07  0.66820833E-08
 -0.16883150E-07 -0.16407649E-07 -0.36495164E-08 -0.12963855E-07 -0.28213639E-08
 -0.56496989E-08 -0.80105801E-08  0.18308935E-07 -0.25011265E-07 -0.14251630E-08
 -0.16114017E-08  0.20996855E-08 -0.21663446E-07  0.12322374E-07  0.76574823E-08
 -0.73921260E-07 -0.52108222E-07 -0.11142535E-06  0.81801324E-07  0.93521296E-07
  0.17912699E-06 -0.38450990E-06 -0.66069423E-06 -0.78009381E-07 -0.31893588E-07
 -0.79311122E-08 -0.97482419E-08  0.22997948E-07 -0.31336292E-07  0.11619780E-08
 -0.21275706E-08 -0.29501530E-07 -0.79439049E-08  0.30100259E-07  0.55531412E-06
 -0.20323160E-06  0.81632470E-06  0.86977020E-07 -0.15962912E-06 -0.80290478E-06
  0.14901037E-06  0.34836783E-06  0.88100279E-08 -0.15047043E-07  0.32441346E-07
 -0.25071228E-07 -0.34659984E-08  0.20310625E-07 -0.84011262E-08 -0.16994081E-07
  0.55158032E-08  0.13246803E-05 -0.24580200E-07 -0.62196271E-06  0.15124498E-05
 -0.87048008E-06 -0.47558603E-06  0.54275301E-06  0.43880223E-06  0.22885713E-06
 -0.26647188E-06 -0.42300817E-07  0.25643120E-06  0.56786527E-06 -0.75271487E-06
  0.72345326E-06  0.90126894E-07  0.47816519E-06 -0.33141290E-06 -0.17777086E-06
 -0.61597679E-06  0.16483966E-06 -0.66085006E-06 -0.15772516E-06 -0.81315487E-07
 -0.55231845E-07 -0.23136628E-06 -0.29561505E-07 -0.27572536E-07  0.14962335E-07
 -0.23523481E-08 -0.29770709E-07 -0.11772516E-07 -0.19423294E-07  0.57357580E-09
 -0.21192520E-07 -0.93943395E-08  0.10236585E-07  0.40734905E-08  0.29634122E-07
 -0.81527920E-08 -0.39203015E-07 -0.25398490E-09  0.25939689E-07 -0.27661875E-07
 -0.86231223E-08  0.36937652E-07  0.19222038E-07  0.46759746E-10 -0.23592589E-07
  0.47996144E-08 -0.88754185E-08 -0.28340747E-07  0.15833437E-08 -0.32824082E-09

 -0.24385530E-07 -0.91888020E-07 -0.59500719E-08 -0.20586530E-08 -0.14149788E-07
  0.10212461E-07 -0.25615698E-07  0.18588140E-07  0.33811607E-07 -0.46503736E-06
  0.18304551E-05 -0.64953808E-06 -0.30092235E-06  0.11325173E-05  0.32065504E-06
 -0.74550912E-06  0.39472680E-06 -0.79477392E-06  0.16005444E-06 -0.22921286E-06
  0.10115115E-06  0.12066756E-06  0.16684911E-05  0.26439124E-06 -0.64974021E-07
  0.62764548E-06 -0.10257000E-05  0.18091283E-05  0.23295738E-06  0.51899585E-06
 -0.14196040E-05  0.20102817E-06 -0.32952143E-06 -0.60358048E-06 -0.73104249E-06
  0.11454202E-05  0.13642121E-06  0.13272261E-05 -0.59646425E-07 -0.27465880E-07
 -0.56459730E-08  0.18786043E-07 -0.30764389E-07 -0.68068122E-08 -0.64709415E-07
  0.13478857E-05  0.25362689E-06  0.74945789E-06  0.23761789E-05 -0.22981257E-05
 -0.96899674E-06  0.60672481E-06  0.95477064E-06 -0.18421330E-06 -0.10024243E-06
 -0.27292131E-08 -0.58880375E-06  0.18157196E-05  0.19176913E-05 -0.20092266E-05
  0.18883332E-05  0.66670799E-06  0.65432116E-06  0.25653496E-07  0.75173910E-07
 -0.22567998E-07  0.17501759E-07  0.41503955E-07 -0.28206675E-07 -0.24085988E-07
  0.57085162E-08 -0.48532567E-07 -0.36783949E-08 -0.24132483E-07 -0.57771364E-08
 -0.77252478E-08  0.41550641E-07  0.88160906E-08  0.21348792E-07  0.24743706E-07
 -0.20918172E-07 -0.45701439E-08  0.15722508E-07  0.27425557E-07  0.15478717E-07
 -0.37763904E-07 -0.39957583E-08 -0.19121356E-07 -0.58524694E-08  0.73036607E-08
 -0.22637434E-06 -0.30163667E-06  0.22911336E-06  0.40003698E-06 -0.81070109E-06
 -0.51211450E-06  0.58447783E-06  0.30172553E-06  0.15765253E-06  0.18710145E-07
  0.85325069E-07  0.66980008E-08 -0.45695995E-08  0.61487803E-07 -0.22082916E-07
 -0.42865389E-07 -0.53877612E-08 -0.39285931E-07  0.61652525E-06 -0.24864609E-05
  0.24605945E-06 -0.92072482E-06  0.16389522E-05 -0.42120568E-06 -0.98624157E-07
 -0.57623041E-06  0.59906976E-06 -0.11128611E-06 -0.14622250E-06  0.57028308E-07
  0.45210981E-07  0.58181931E-08 -0.25082487E-08  0.27345987E-07 -0.28556530E-07
 -0.14174017E-07 -0.80692188E-06 -0.16760633E-05 -0.16672523E-05 -0.58539942E-06
  0.25429650E-05  0.21455419E-06  0.12012077E-06 -0.63392114E-06 -0.63476564E-06
  0.20224734E-05  0.39771784E-06  0.41477621E-06 -0.95349156E-06 -0.35179913E-05
  0.10210467E-05 -0.11421831E-05 -0.64894429E-07  0.30173305E-06  0.45756338E-06
 -0.21725950E-07 -0.19608598E-07  0.16486057E-06  0.36032190E-06  0.28556473E-06
 -0.92555372E-06  0.54349674E-06  0.33668431E-06 -0.20794773E-07  0.28058928E-07
 -0.49682652E-07 -0.53435647E-08 -0.73964698E-08  0.63535263E-08 -0.39344983E-07
  0.75330350E-08  0.19077732E-07 -0.47150398E-08  0.32330029E-08  0.11341139E-08
  0.47008014E-08 -0.42190684E-07  0.14019323E-07 -0.35647157E-07  0.21018390E-07
 -0.31845388E-07  0.23772895E-07  0.16965910E-07  0.23917345E-07 -0.21164038E-08
 -0.54332084E-07  0.16830899E-07  0.21755219E-07  0.15748399E-07 -0.76740381E-08

 -0.39060146E-07 -0.17975083E-07  0.62919184E-08 -0.41759246E-08  0.30112493E-07
 -0.31748613E-07 -0.51492229E-08 -0.20868680E-07 -0.24647549E-07 -0.58795729E-06
 -0.63650466E-06  0.97092912E-07  0.33482056E-06  0.32851141E-06 -0.48353468E-06
 -0.41676082E-06 -0.12108705E-06 -0.54187616E-06 -0.59513810E-06 -0.57215606E-07
  0.21312781E-06 -0.57935804E-07  0.97123940E-06 -0.15025311E-06  0.19727436E-06
 -0.69141966E-06 -0.25686016E-06 -0.17764390E-06  0.36835006E-07  0.16565786E-06
 -0.13027213E-06  0.97850887E-07  0.14154042E-06 -0.62849769E-06 -0.68470850E-06
 -0.74691091E-06 -0.60943090E-08 -0.59646425E-07  0.64039428E-06  0.40240961E-07
  0.19067676E-07 -0.42194021E-07 -0.15043824E-07 -0.20684092E-08  0.33514818E-07
  0.43444466E-06 -0.27298776E-06 -0.26493145E-06  0.66682593E-06  0.11459012E-06
 -0.78682130E-06  0.80831603E-06 -0.12039364E-05  0.43117820E-06 -0.91527696E-06
 -0.63135880E-06  0.12341627E-05 -0.24409446E-05 -0.31765112E-06  0.19380501E-05
  0.64223970E-06 -0.13377168E-05 -0.21864490E-05  0.10984151E-07 -0.93845682E-08
 -0.47393226E-07 -0.27631501E-08 -0.78887120E-08 -0.34923719E-09 -0.40556447E-08
 -0.14545971E-07 -0.80941919E-08 -0.95306870E-08 -0.26851124E-07 -0.11648683E-07
  0.64577577E-08  0.40304639E-08 -0.65676042E-09  0.11080636E-07 -0.68579065E-08
  0.64561830E-08  0.17724526E-07 -0.30497205E-07  0.53515453E-08  0.76735703E-08
  0.55374463E-08  0.92527588E-08  0.11983079E-07  0.10032709E-07  0.10621728E-07
 -0.34089141E-06  0.67111147E-07 -0.23559690E-06  0.76619644E-07  0.50847040E-07
  0.14893349E-06  0.34256516E-06 -0.15290693E-06  0.60977366E-06 -0.36485789E-07
 -0.77715882E-08  0.20968969E-07  0.32665445E-08 -0.29500294E-07 -0.87458288E-08
  0.54294798E-08 -0.74108390E-08 -0.12453537E-07 -0.13625996E-06 -0.55605868E-06
 -0.93303856E-07 -0.12893902E-06 -0.22579228E-06 -0.19593091E-06  0.33053203E-06
 -0.54789907E-06  0.44027732E-07 -0.16220326E-07 -0.28504202E-07 -0.22858957E-07
 -0.30329474E-07  0.22382351E-07 -0.53585062E-08 -0.12243947E-07 -0.52191275E-07
 -0.16474076E-07  0.35212839E-07 -0.23526603E-06  0.52226476E-06 -0.72328400E-07
  0.88702328E-07 -0.34820777E-07  0.99562414E-06 -0.59167570E-06 -0.17917590E-06
  0.35224557E-06  0.31172615E-06  0.70329159E-06  0.69788301E-06  0.12974618E-07
 -0.14950070E-06 -0.43219472E-07  0.64408488E-06  0.11183652E-05 -0.14741186E-05
 -0.85295410E-06 -0.13696655E-06 -0.47215597E-06  0.45047564E-06 -0.36710600E-06
 -0.69972983E-06 -0.11272211E-05  0.62708593E-07 -0.60263801E-08  0.11734006E-07
  0.58774302E-07 -0.65085333E-08 -0.28767148E-08  0.21262889E-08  0.13215777E-07
 -0.81577633E-08 -0.27751864E-07  0.88992634E-08  0.32252203E-08 -0.17429485E-07
  0.83308372E-08  0.15715703E-07 -0.26458174E-09  0.14898094E-09 -0.55498257E-08
  0.89895701E-08 -0.17321859E-08 -0.10937524E-07 -0.15668529E-07  0.21690558E-08
 -0.21729251E-08  0.56163516E-08 -0.14660479E-08  0.31580004E-08  0.53406689E-08

  0.32627024E-07 -0.27968069E-07 -0.18737589E-07 -0.60866376E-07  0.35476783E-07
  0.29223919E-07 -0.77084007E-08 -0.95664828E-09  0.52116906E-08 -0.30096065E-08
 -0.48769409E-06 -0.23421436E-06 -0.62777196E-06  0.31583496E-06 -0.34888157E-06
  0.47873032E-07  0.61254848E-06 -0.99090852E-06  0.70402901E-06 -0.23218939E-06
 -0.54297480E-06 -0.40217618E-06  0.10268495E-05 -0.65231627E-06  0.12044716E-06
  0.29262126E-06 -0.82874780E-06  0.49600887E-06  0.34526797E-07  0.94967443E-06
  0.46309048E-06  0.30074961E-06  0.26914031E-07  0.69698007E-06  0.65422653E-06
  0.27542416E-06 -0.42920496E-07 -0.27465880E-07  0.40240961E-07  0.72682083E-06
 -0.22987521E-06 -0.11305925E-06  0.61852858E-07 -0.57452093E-08  0.22666938E-07
 -0.12923299E-05 -0.61247376E-06 -0.74417427E-06 -0.55239444E-07  0.68454899E-06
  0.13194435E-05 -0.24686650E-05 -0.76776321E-06 -0.15821465E-05 -0.20737075E-06
 -0.51441491E-06  0.28775492E-06 -0.20443431E-05  0.29520286E-06  0.58116238E-06
  0.37592757E-06 -0.12632531E-05 -0.10953410E-05 -0.17944835E-07  0.11413306E-07
 -0.75016194E-08  0.31044323E-08  0.21823625E-07  0.17972437E-07  0.15125940E-07
 -0.76039546E-09 -0.11653480E-07  0.13008062E-07 -0.17628685E-07 -0.16468806E-07
  0.58703974E-08  0.38258086E-07  0.17673389E-07 -0.87648662E-08 -0.15510221E-07
 -0.70100395E-08 -0.28260565E-07 -0.24108260E-07 -0.13525178E-07 -0.26974592E-07
  0.32647625E-07  0.29632863E-07 -0.22224809E-07  0.97611541E-08 -0.36290631E-08
 -0.37921104E-06 -0.18377790E-06 -0.34008957E-06 -0.91683663E-06  0.50133734E-06
  0.61065354E-09 -0.38343778E-06  0.76306423E-07 -0.81398210E-07 -0.31317919E-07
 -0.55969925E-08  0.10541041E-07 -0.21422809E-07  0.19743096E-07  0.12743803E-07
 -0.38560413E-08  0.18202244E-07  0.91304854E-08 -0.23450309E-06 -0.47579446E-07
 -0.32300116E-06 -0.61558957E-06  0.63530236E-06 -0.11471382E-06 -0.65118147E-06
  0.29202627E-06  0.18050150E-07  0.13172615E-07 -0.43430967E-07 -0.22670385E-07
 -0.49050042E-07  0.57513848E-07 -0.32812345E-08  0.53770783E-07 -0.36514660E-07
 -0.35158772E-08 -0.11720723E-05  0.18454072E-06  0.24044341E-06 -0.85831999E-06
  0.18168659E-05 -0.30030160E-06  0.22571413E-06 -0.17299735E-05  0.10807215E-06
  0.25588833E-06 -0.25852535E-06 -0.19124659E-07 -0.16373142E-05  0.67550090E-06
 -0.84599489E-07 -0.13088222E-10 -0.50738920E-06 -0.13410363E-06 -0.69754193E-06
 -0.14255971E-07  0.89351529E-07  0.25415750E-05  0.31043393E-07 -0.30466824E-06
  0.12420846E-05  0.14452179E-06  0.34516541E-06  0.68752448E-08  0.20261235E-07
  0.13753002E-07  0.11897752E-07  0.33121263E-07  0.20072784E-07  0.89213235E-08
 -0.14441638E-07 -0.13486567E-07  0.11917422E-07 -0.11499454E-07  0.91186692E-08
 -0.23682069E-07  0.44145556E-07  0.25712442E-07 -0.58422616E-08  0.74310156E-09
 -0.11015245E-07  0.48981639E-08 -0.28291490E-07  0.67891202E-08  0.55778854E-07
  0.21367340E-07  0.38033702E-07 -0.48839883E-08  0.10410607E-07 -0.18252915E-07

  0.10208151E-07  0.84360073E-08  0.16071815E-07  0.66314414E-08  0.55758853E-07
 -0.25610190E-08 -0.73579170E-08 -0.10061390E-08  0.33210408E-07  0.17280180E-07
  0.17223211E-05  0.45044742E-06 -0.18202927E-06  0.18534914E-05 -0.13452537E-06
 -0.71898128E-06 -0.31228758E-06  0.86093856E-06  0.24881065E-06 -0.17816610E-06
 -0.15894737E-06  0.39258688E-06 -0.19050479E-05  0.59659755E-07 -0.15997896E-05
  0.18295632E-06  0.66180419E-07 -0.85783509E-06 -0.73957555E-07 -0.45286086E-06
 -0.90489039E-07 -0.48864695E-06  0.19980139E-06 -0.25965749E-06 -0.25989013E-06
 -0.16159460E-06  0.86900823E-08 -0.56459730E-08  0.19067676E-07 -0.22987521E-06
  0.11587956E-05 -0.15949612E-06  0.71862556E-07 -0.21178919E-07 -0.46567849E-07
  0.43896065E-06 -0.10117505E-05  0.55034726E-06 -0.41115902E-06  0.16652635E-06
 -0.46918618E-06  0.11888226E-05 -0.39303871E-06  0.14895432E-05 -0.40741929E-06
 -0.55068144E-06 -0.51429415E-06  0.10887137E-05 -0.92227044E-06 -0.77395835E-06
 -0.91018329E-06  0.48784704E-06 -0.58015280E-06  0.33822696E-07  0.30055968E-08
 -0.54304497E-08  0.21926489E-07 -0.71231633E-07  0.66288024E-08  0.19732738E-07
 -0.74238295E-08  0.11215172E-07  0.87509433E-08 -0.32685388E-07  0.62659699E-08
  0.36496952E-07 -0.27476758E-07  0.10440665E-07  0.14612116E-07 -0.13171644E-07
  0.24418767E-08  0.11732549E-07  0.73025897E-07  0.44877493E-08  0.33132112E-07
 -0.42776292E-07  0.12380369E-07  0.36014358E-07 -0.12615867E-07  0.64767681E-08
  0.22020290E-06  0.16588079E-05  0.20814374E-06  0.33048019E-06  0.15432210E-06
  0.42383175E-06  0.45221232E-06 -0.22777105E-06 -0.40671347E-06  0.40099118E-07
 -0.10647643E-07 -0.30090278E-08  0.32808771E-07 -0.53005424E-07  0.10150404E-07
  0.70458498E-08 -0.94424110E-08 -0.39708720E-08  0.45996684E-06  0.30294422E-06
  0.16191152E-06 -0.17341484E-06 -0.16543886E-05  0.22509603E-06 -0.67382860E-06
 -0.58068631E-06 -0.77306430E-06 -0.41770130E-07 -0.22071024E-07  0.54492193E-07
  0.21449352E-07  0.41486168E-07  0.32842561E-07  0.46268967E-07  0.17663138E-07
  0.13620226E-07  0.17826776E-06  0.12866563E-05  0.14359817E-06  0.13634895E-07
  0.20297502E-07  0.56985976E-07  0.26563478E-06  0.37443497E-06  0.52594015E-07
 -0.38012353E-06  0.74052763E-06 -0.19989507E-06  0.44604305E-06 -0.43411346E-07
 -0.28799410E-06 -0.51101181E-06  0.10023257E-05 -0.22072309E-06  0.84224508E-06
  0.10115744E-05 -0.14264067E-06  0.72274703E-06  0.84039651E-06 -0.22815951E-06
 -0.20634764E-06  0.33965738E-06 -0.81879922E-06  0.41512179E-08 -0.14633760E-07
  0.14738816E-07  0.11639581E-07 -0.33620782E-07  0.13349775E-07  0.27516887E-07
  0.19241410E-08  0.74424677E-08 -0.11845825E-07  0.97612501E-08  0.11187501E-07
  0.40596795E-07 -0.34804295E-07  0.71740867E-08  0.58583967E-08  0.13639767E-07
  0.23240694E-07  0.80252286E-08  0.13600204E-07 -0.74922133E-08  0.90684589E-08
  0.55918092E-08  0.38784489E-07 -0.35381308E-07 -0.30510058E-08 -0.36370598E-08

  0.16109778E-07  0.17751885E-07 -0.14903521E-08  0.27386847E-07 -0.40908501E-08
  0.47608293E-08  0.20064558E-08  0.64751827E-08 -0.32746849E-09  0.21841785E-06
 -0.33918470E-06  0.11909139E-06 -0.31188704E-06 -0.37453448E-06  0.66703857E-06
 -0.17296253E-06  0.23339898E-06 -0.90198971E-07  0.80657591E-08 -0.39937613E-07
  0.18782601E-06 -0.35863993E-07 -0.32854841E-06  0.12981784E-06  0.72860938E-07
 -0.44579282E-06 -0.40240813E-07 -0.11839928E-06  0.20809138E-06 -0.39886472E-06
  0.11335338E-06  0.11962991E-07 -0.45014705E-06  0.11808245E-06  0.74172968E-07
 -0.28599404E-07  0.66602774E-10  0.18786043E-07 -0.42194021E-07 -0.11305925E-06
 -0.15949612E-06  0.34436442E-06 -0.28600938E-07 -0.91309143E-08 -0.17467437E-07
  0.44933762E-06  0.70458015E-06  0.34644666E-06  0.56527057E-06 -0.22987320E-06
 -0.67657834E-06  0.62329828E-06  0.67849565E-06  0.73409634E-06  0.99377107E-06
  0.66589621E-06 -0.71025910E-06  0.88739509E-06 -0.14887917E-06 -0.42886533E-07
 -0.48562020E-06  0.55949291E-06  0.20898355E-05  0.11797973E-07 -0.23128566E-08
  0.28584157E-07  0.14302100E-07  0.14427265E-07  0.94289687E-08  0.50151780E-08
  0.16131740E-07 -0.10980787E-08  0.10280296E-07  0.13928496E-07 -0.26129219E-07
  0.96405614E-08  0.10528916E-07  0.10481068E-07  0.30824783E-08  0.59758340E-08
  0.10783443E-07 -0.83920748E-08 -0.14417911E-07 -0.93324458E-08  0.23955497E-07
  0.15435897E-07 -0.20024460E-08  0.28147633E-08 -0.33263909E-08 -0.95845777E-08
  0.11820038E-07 -0.44876916E-07 -0.48489673E-06  0.45430317E-06  0.53920920E-07
 -0.35327622E-06  0.11896086E-06  0.61903198E-07  0.14234366E-06 -0.45742711E-08
 -0.99211804E-08 -0.22311849E-07  0.11749876E-07  0.17233579E-07  0.15798990E-08
 -0.40222417E-08  0.16779810E-07 -0.51966170E-08  0.39189770E-06 -0.72786690E-08
  0.15535174E-07  0.71019109E-07  0.24434010E-06  0.10535562E-06  0.20812773E-06
  0.34489432E-06 -0.31522861E-07  0.10798216E-07  0.11304697E-07 -0.29376291E-07
  0.27297370E-07  0.35080190E-08  0.20288674E-07 -0.15920467E-07  0.16364246E-07
  0.20606213E-07 -0.92550291E-07 -0.27710853E-06  0.25467067E-06 -0.61434936E-07
 -0.18206108E-06  0.57027482E-06 -0.66625122E-06 -0.95600181E-06  0.27980388E-06
  0.52702161E-07  0.17741636E-06 -0.50873897E-06 -0.43546310E-06 -0.14956716E-06
  0.35437241E-06 -0.58908119E-06 -0.86007324E-06  0.15663589E-06  0.20217714E-06
 -0.33988978E-06  0.16382791E-06 -0.47088069E-06  0.20863800E-06  0.48929433E-06
 -0.16581375E-06  0.28295056E-06 -0.25222648E-06  0.63256668E-08 -0.90075539E-08
 -0.23063970E-07  0.17412271E-07  0.10474417E-07 -0.88459351E-08 -0.51281123E-08
  0.55692863E-08  0.30922943E-07 -0.78659637E-08  0.10498165E-08 -0.10098660E-07
  0.22229097E-07  0.22521586E-07  0.13993066E-07 -0.76905480E-08 -0.30698607E-08
 -0.98811344E-10 -0.25258048E-07  0.80022311E-08 -0.17726191E-08  0.29133332E-07
  0.38599728E-07 -0.30351602E-07  0.89518566E-08  0.79116133E-08  0.26627767E-08

 -0.84257115E-08  0.35139865E-07 -0.10235427E-08  0.12903521E-07  0.11433472E-07
 -0.35017000E-08  0.20364347E-07  0.14770839E-07  0.22379474E-07  0.44530346E-06
  0.36272604E-06 -0.47288730E-06  0.12102081E-06  0.79719632E-06 -0.11986091E-06
 -0.11142377E-06  0.32650394E-06 -0.57016491E-06  0.21455014E-06  0.34381384E-08
 -0.76097889E-07  0.89995343E-07 -0.10685502E-06 -0.83911241E-07  0.13021666E-05
  0.14251101E-06  0.14967962E-06 -0.19288143E-06  0.12944218E-06  0.10702097E-06
  0.90743340E-06 -0.59301362E-06  0.37873090E-06 -0.54932591E-06 -0.50515179E-06
  0.88865656E-07 -0.65980135E-07 -0.30764389E-07 -0.15043824E-07  0.61852858E-07
  0.71862556E-07 -0.28600938E-07  0.56443033E-06 -0.14712408E-07  0.14295124E-07
 -0.11148150E-05  0.86437470E-06 -0.44066768E-06 -0.21306724E-05  0.18961969E-05
  0.71477369E-06 -0.33025606E-06 -0.86202416E-06 -0.14643718E-06 -0.72442989E-06
  0.30842384E-06 -0.17707800E-06  0.12530284E-05  0.90613896E-06 -0.25057663E-06
  0.74377224E-06  0.12213712E-06  0.11208845E-06  0.19089659E-08 -0.16938061E-07
 -0.16277769E-07  0.37499343E-08  0.13241248E-08 -0.37534141E-08  0.25967024E-07
 -0.96787045E-09 -0.60197965E-08 -0.10934938E-07 -0.13537541E-07 -0.91570332E-08
  0.11091157E-07 -0.32366438E-07  0.86507118E-08  0.25314249E-07 -0.19505327E-08
 -0.20267458E-07  0.23439764E-07  0.69663285E-08  0.84026750E-08  0.13309617E-07
  0.26465467E-07 -0.67635604E-08  0.90572679E-08  0.23227605E-08 -0.11838757E-07
  0.53898351E-07 -0.60878632E-06  0.21712818E-06 -0.33168811E-06 -0.18467457E-06
  0.16947714E-06  0.66538877E-07  0.13321575E-06 -0.37567263E-06  0.20350918E-08
 -0.55832287E-07  0.52342689E-08 -0.14992066E-07  0.44773341E-07 -0.36478559E-08
  0.32046351E-07 -0.26327076E-08  0.51157881E-08 -0.50373744E-06 -0.75642509E-06
 -0.19143545E-07  0.35767599E-06 -0.31326047E-06 -0.17743224E-06  0.34575555E-06
 -0.38839426E-06  0.12239652E-06  0.25806412E-08 -0.13772197E-07 -0.20218509E-07
 -0.50307869E-07  0.21957062E-08  0.11432210E-07 -0.20778234E-07 -0.77589462E-08
 -0.43060303E-08 -0.78298414E-06  0.14684220E-07  0.17809207E-06 -0.92317955E-06
  0.52604842E-06  0.13130781E-06 -0.38102237E-06 -0.20390278E-06  0.32500909E-06
 -0.51270894E-06 -0.52686235E-07 -0.16925382E-06 -0.11919992E-05  0.31746514E-06
 -0.10697334E-06 -0.96155586E-07  0.32845779E-06 -0.14123528E-06 -0.38364168E-06
 -0.25065893E-06 -0.32126952E-06  0.11069216E-05 -0.88090602E-06  0.64888341E-07
  0.71141984E-06 -0.75301444E-07  0.22143809E-06  0.19862883E-08  0.11107209E-07
  0.91343761E-08 -0.31264967E-08 -0.35246172E-08  0.17895958E-08 -0.20548065E-07
  0.79887580E-08  0.59504527E-08  0.27178733E-07  0.38018401E-07 -0.10225598E-07
  0.52701306E-08 -0.19494620E-07  0.91176546E-08  0.31370848E-07  0.10737958E-07
 -0.87863068E-08  0.25208270E-08  0.89755689E-08  0.28137018E-08  0.93910660E-08
 -0.18004110E-07  0.17944582E-07 -0.38528780E-07  0.48478611E-08 -0.50688292E-08

  0.22479320E-07 -0.19605337E-08  0.70141906E-08  0.12550671E-07  0.10806136E-08
 -0.60150187E-08 -0.98916434E-08  0.26685132E-07 -0.17516210E-07  0.31844225E-08
  0.31963045E-06 -0.17946977E-06  0.54086778E-06 -0.44444501E-06  0.18934833E-07
 -0.22827947E-06  0.49721047E-06  0.23735036E-06  0.63909161E-07  0.29950647E-06
  0.30213762E-06  0.81149091E-07 -0.20584190E-10  0.10279596E-06  0.29170564E-06
 -0.12455997E-06  0.14228535E-06  0.38387040E-07  0.24209606E-08 -0.63943636E-08
 -0.78463773E-07  0.21279316E-06 -0.47871050E-06 -0.50012708E-06  0.32583504E-06
 -0.23138444E-06 -0.11221531E-07 -0.68068122E-08 -0.20684092E-08 -0.57452093E-08
 -0.21178919E-07 -0.91309143E-08 -0.14712408E-07  0.31470575E-06  0.38537305E-07
 -0.90847948E-06 -0.29382343E-06  0.65075726E-06 -0.10584612E-05  0.25132993E-06
  0.10343873E-05 -0.97215215E-06  0.96630902E-06 -0.29850549E-06 -0.27332608E-06
 -0.24455667E-06  0.62691062E-06 -0.83532895E-06 -0.15703244E-06  0.43167964E-06
 -0.12233722E-06  0.19352129E-06 -0.73225865E-06  0.12520378E-07  0.25093627E-07
  0.82651344E-08 -0.42913068E-08  0.81452886E-08 -0.36580255E-08  0.13466583E-07
  0.16306871E-08  0.53054305E-09 -0.16698551E-07  0.93228047E-08 -0.82191301E-08
 -0.55767804E-08  0.76116889E-08 -0.84662770E-08 -0.31039060E-08 -0.17465596E-07
 -0.32200659E-08  0.18925544E-09 -0.15219324E-08 -0.36888402E-08 -0.13689651E-07
 -0.20449124E-08  0.11917021E-07  0.41822364E-08 -0.51761619E-08 -0.69171167E-08
 -0.13756037E-06 -0.99429690E-07  0.23703089E-06 -0.50888812E-06  0.19894989E-06
  0.13355081E-06 -0.77300217E-07  0.16683181E-06  0.49441089E-06 -0.18783216E-07
  0.72185672E-08 -0.12404086E-07 -0.18501570E-08  0.67985113E-08 -0.40457024E-08
 -0.48648035E-08 -0.51259343E-08  0.11968999E-08 -0.25718204E-06 -0.13924101E-06
  0.89663566E-07 -0.29110169E-06  0.12627823E-06  0.18335843E-07 -0.82311290E-07
  0.57020612E-07 -0.11506039E-07  0.60210653E-07  0.90047329E-08 -0.22308549E-07
  0.42368185E-07 -0.26938416E-07  0.20817335E-09 -0.16479933E-07 -0.34149233E-07
  0.31556340E-08  0.46593110E-06 -0.15552546E-06  0.26188432E-06  0.11714122E-05
 -0.46366735E-06  0.33967891E-06  0.39653668E-06  0.11608831E-06  0.24418897E-06
  0.29613418E-06  0.26741309E-06 -0.37443277E-08  0.12938325E-05 -0.30864929E-06
  0.45852762E-07  0.80324858E-06 -0.50312838E-06  0.91450506E-07 -0.14260091E-06
  0.46635913E-07  0.11935044E-06  0.47741584E-06  0.56762136E-07 -0.57352636E-07
  0.31843419E-06 -0.43361505E-06 -0.30764008E-06  0.38359565E-08  0.10819351E-07
  0.73358911E-08  0.50420978E-08 -0.13333649E-08  0.64504620E-08  0.17723898E-08
 -0.47184932E-08 -0.57208194E-08 -0.11638641E-07  0.11626633E-07  0.37980215E-08
  0.11446228E-08  0.66311435E-08 -0.99420118E-09 -0.17792067E-07 -0.19017290E-07
  0.28081807E-08  0.10658964E-07  0.77136296E-08  0.77933590E-08  0.10767608E-08
 -0.35427984E-08 -0.46747202E-08 -0.44119969E-09  0.72827491E-08 -0.25749127E-08

 -0.18965003E-07 -0.20788226E-07  0.57887201E-08 -0.27705988E-08 -0.30854019E-07
  0.68056890E-08 -0.24769860E-08  0.51126781E-08 -0.32322151E-07 -0.13969379E-06
  0.62689706E-06  0.75776194E-06  0.47553965E-06 -0.55308297E-06 -0.94123203E-06
  0.52077566E-06  0.57703616E-07  0.96921572E-07  0.18276872E-06 -0.63507223E-06
  0.34145371E-07 -0.11354562E-06  0.76571036E-06 -0.13618290E-06  0.16263855E-06
  0.21283315E-06  0.30049082E-07 -0.10072133E-06 -0.14523643E-06  0.18306070E-06
  0.44098469E-06 -0.18678649E-06  0.27034519E-06 -0.61999524E-06 -0.55328733E-07
 -0.62900285E-07 -0.40353834E-08 -0.64709415E-07  0.33514818E-07  0.22666938E-07
 -0.46567849E-07 -0.17467437E-07  0.14295124E-07  0.38537305E-07  0.41019336E-06
 -0.59024304E-06  0.16837652E-06  0.49768231E-06 -0.97851787E-06  0.53523125E-06
  0.84434403E-06 -0.47268974E-06  0.26970628E-06 -0.13845883E-06 -0.67632852E-06
 -0.15876505E-06  0.97036362E-06 -0.10898538E-05 -0.83115961E-06  0.72712044E-06
  0.29572864E-06 -0.10528283E-05 -0.11770965E-05 -0.15035623E-07  0.50748566E-07
  0.25471964E-07 -0.56902466E-08  0.21955046E-07  0.63079020E-09 -0.70095816E-08
 -0.21181458E-08 -0.20031652E-07 -0.14247976E-07  0.77930961E-08  0.24206947E-08
  0.24920973E-08 -0.17019040E-07 -0.18297071E-07  0.43520085E-08  0.14626497E-08
 -0.81060600E-08  0.11298616E-07  0.14359253E-07 -0.19039985E-07 -0.17151477E-07
  0.13852051E-07 -0.88616741E-08 -0.61503586E-08  0.39942636E-08  0.10154707E-07
 -0.27183003E-06 -0.38143159E-06 -0.58695537E-08 -0.27881291E-06 -0.13902814E-06
 -0.27127204E-06  0.26560669E-06  0.57925571E-06 -0.76796923E-06 -0.23764155E-07
 -0.49966177E-07  0.19070966E-07 -0.12765970E-07 -0.92105168E-08  0.16167703E-08
  0.10874013E-07 -0.50517632E-08 -0.89501704E-08 -0.10454268E-06 -0.21790741E-06
 -0.82004031E-07  0.22552051E-06 -0.45414523E-06  0.40800449E-07  0.15917588E-06
  0.19690160E-06 -0.97689406E-07  0.13059094E-07  0.85403830E-08 -0.12159823E-07
 -0.21776005E-07 -0.47557856E-07 -0.63540097E-08 -0.46096921E-07 -0.18301831E-09
 -0.18490047E-07  0.52243866E-06 -0.14379097E-06 -0.26323201E-06  0.13442681E-06
 -0.65402395E-06 -0.12229135E-06  0.10392586E-06 -0.22098168E-06 -0.75998553E-06
 -0.16945089E-06  0.56529988E-06 -0.26838622E-06 -0.19664290E-06 -0.24319010E-06
  0.20483896E-06  0.18299351E-07  0.34516684E-06  0.40883726E-06  0.85572178E-07
  0.29119159E-06 -0.36726329E-06 -0.26679564E-06  0.16103119E-06  0.13722589E-06
  0.44087102E-06 -0.38276903E-06  0.51619565E-06 -0.70482717E-08  0.29036087E-07
 -0.58526419E-08  0.73989617E-08 -0.71725161E-08 -0.20249760E-07  0.19499236E-08
 -0.25065277E-08  0.74027857E-09 -0.39430358E-09 -0.27032838E-07  0.94202239E-08
 -0.12401457E-07  0.18880144E-09  0.15472692E-07 -0.23606325E-08 -0.76446469E-08
  0.11325766E-07  0.63542827E-08 -0.74764357E-09 -0.21768000E-07 -0.22887539E-08
 -0.96756597E-08 -0.90119960E-08  0.24688909E-08 -0.85706911E-08  0.16191862E-07

 -0.53967350E-06 -0.72452600E-06 -0.13232988E-06 -0.79384945E-06 -0.69249950E-07
  0.24785020E-06 -0.48580185E-06 -0.15014945E-06  0.16864819E-06 -0.25842280E-04
 -0.14473680E-04 -0.28658785E-05  0.22572750E-04  0.95069201E-05 -0.13433110E-04
  0.62034701E-05 -0.25505767E-06 -0.79334303E-05  0.15816860E-04 -0.82665638E-05
 -0.67024999E-05 -0.10985197E-04 -0.11812622E-04  0.66690134E-05 -0.67951988E-05
  0.84111102E-06  0.15324711E-05  0.83238020E-05  0.30730448E-05  0.74049200E-05
 -0.26285754E-04  0.42254723E-05  0.66322278E-05  0.14554290E-04 -0.10453145E-04
  0.14220386E-05  0.21837468E-05  0.13478857E-05  0.43444466E-06 -0.12923299E-05
  0.43896065E-06  0.44933762E-06 -0.11148150E-05 -0.90847948E-06 -0.59024304E-06
  0.18687145E-03  0.73850740E-07 -0.22957328E-04  0.15174806E-04 -0.12039937E-04
 -0.87160799E-05  0.17583315E-04 -0.82602578E-05  0.63583441E-05  0.24554688E-04
  0.30458825E-04 -0.59544225E-05 -0.81997386E-05 -0.42297225E-05 -0.65012529E-05
 -0.39350298E-04  0.72380962E-05  0.12532953E-04  0.82539635E-06  0.45985253E-06
 -0.54396021E-07  0.43611828E-06 -0.19194062E-06 -0.11208310E-07 -0.36404428E-06
 -0.85020371E-08 -0.11041558E-06 -0.11841487E-06  0.15059075E-06 -0.75257878E-06
 -0.24156261E-06 -0.13197180E-06  0.62879421E-07  0.29336095E-06  0.25925673E-06
 -0.46155052E-07 -0.28018779E-06  0.73275512E-06 -0.44252483E-06 -0.32190340E-07
  0.47994211E-06 -0.26040838E-06 -0.45915613E-06 -0.86359306E-07  0.65856240E-07
  0.26057801E-04 -0.51403027E-05 -0.11317376E-04 -0.40814493E-05 -0.61160039E-06
  0.16927848E-05  0.79711099E-05  0.53061562E-05  0.20225747E-05  0.43967472E-06
  0.12930213E-05 -0.17994752E-06  0.62072774E-06 -0.25446583E-06 -0.21559296E-06
  0.21058947E-06  0.34780669E-08 -0.43763740E-07  0.24153242E-04  0.28361573E-06
  0.91270847E-05 -0.32494128E-04  0.92797293E-05  0.48078326E-05 -0.44471937E-05
 -0.79325545E-05  0.20647319E-05 -0.26883093E-06 -0.55615499E-06 -0.19624213E-06
  0.11265554E-05 -0.48675057E-06 -0.53159204E-07  0.42466884E-06  0.21006628E-06
  0.45934288E-06 -0.26389163E-04 -0.29605083E-04 -0.70606256E-05 -0.48454180E-04
  0.14014560E-04 -0.20475985E-05 -0.39361517E-05  0.32759432E-04  0.14949140E-05
 -0.21024658E-04 -0.24228252E-04  0.14249900E-04 -0.52419363E-04 -0.30966927E-05
  0.78977209E-05 -0.38931353E-04 -0.57962868E-05 -0.55691580E-05 -0.24260052E-05
 -0.54437474E-05  0.78348865E-05  0.26366588E-04  0.14210539E-04  0.13011175E-05
  0.26576939E-04  0.15409289E-04  0.57631149E-05 -0.38558774E-06 -0.65933564E-08
  0.18582337E-06 -0.24933896E-07  0.15441413E-07 -0.30180365E-06 -0.11698522E-06
  0.16383632E-06  0.11575955E-06 -0.89460403E-07 -0.31261001E-07 -0.42787789E-06
  0.44406284E-06 -0.28816286E-06 -0.17497711E-06  0.58855905E-07 -0.15068262E-06
  0.59368187E-07 -0.89528442E-07  0.56850137E-07  0.11050556E-06 -0.42955077E-06
 -0.22548885E-06  0.44905045E-07 -0.33482714E-06  0.20785924E-06 -0.71966359E-07

 -0.11360727E-05  0.43088586E-06 -0.65763349E-06 -0.40825580E-07 -0.57684895E-06
 -0.80422012E-07  0.73265123E-06 -0.64098372E-07 -0.32604204E-06 -0.13855378E-04
 -0.25502133E-04  0.99246892E-05  0.24061945E-04 -0.99168794E-05 -0.12380243E-05
  0.28972954E-04  0.12390230E-04 -0.15239194E-04  0.13889652E-05  0.16617633E-04
  0.56909852E-05 -0.49007722E-05  0.26885091E-04 -0.13528450E-04  0.50428646E-04
 -0.21501346E-04  0.98340403E-05 -0.45434656E-04  0.29514560E-05  0.15278598E-04
  0.67114160E-04 -0.60512166E-04 -0.19038359E-04 -0.31673799E-05 -0.79584509E-05
 -0.75338342E-05 -0.96274533E-06  0.25362689E-06 -0.27298776E-06 -0.61247376E-06
 -0.10117505E-05  0.70458015E-06  0.86437470E-06 -0.29382343E-06  0.16837652E-06
  0.73850740E-07  0.47974768E-03 -0.72074015E-04 -0.21438104E-04 -0.20814047E-04
 -0.51331047E-05 -0.63013841E-05 -0.80833909E-05  0.12894354E-04 -0.43268334E-05
 -0.39945666E-04 -0.32797928E-04 -0.37737390E-04  0.76629439E-04 -0.20762242E-05
  0.98159945E-05  0.31161385E-04  0.15865721E-04 -0.83509993E-06  0.13511862E-05
 -0.41531356E-06  0.43859840E-06 -0.40069680E-06  0.22290494E-06 -0.42871590E-06
 -0.30244535E-07 -0.85319328E-07 -0.62324123E-06  0.96530966E-06 -0.33587536E-06
  0.69455559E-06  0.17311069E-06 -0.15493013E-06  0.89747824E-06 -0.54456889E-06
  0.46241296E-06  0.63274088E-06 -0.14381713E-05  0.29199250E-06 -0.18856939E-06
  0.47440612E-06 -0.30027702E-07  0.10816001E-06 -0.26129900E-06 -0.53597936E-06
  0.33764955E-04 -0.41969115E-04 -0.52716073E-05  0.48339961E-05 -0.92857332E-05
 -0.99672379E-05 -0.62659363E-05  0.14915516E-04 -0.90997759E-05 -0.70430522E-06
 -0.29080516E-06  0.15126170E-06 -0.48162237E-06  0.57057099E-07  0.30736732E-06
 -0.49719458E-06 -0.24047034E-07 -0.10427363E-06 -0.20140344E-04 -0.65776035E-04
 -0.90809271E-05 -0.97121426E-05  0.49885258E-04  0.80311514E-07  0.16899670E-04
 -0.26574044E-05  0.18476900E-04 -0.26302717E-05 -0.16323874E-05 -0.71910041E-06
  0.23969715E-05 -0.17537947E-05 -0.62875866E-06 -0.11928710E-05 -0.18262205E-06
 -0.10123628E-05 -0.55792376E-04 -0.10902566E-03 -0.16435172E-04  0.12521073E-04
  0.50155475E-04  0.77565789E-05 -0.50682173E-04 -0.32453632E-04 -0.55837425E-04
 -0.22617547E-04  0.14929463E-04  0.99805795E-05 -0.67953021E-04 -0.28799890E-04
  0.56452952E-05 -0.22190153E-04 -0.41006204E-04 -0.39329271E-05 -0.26644353E-04
 -0.46869555E-05  0.32176617E-04  0.34942206E-04 -0.31827986E-05  0.42154355E-04
 -0.34412596E-04 -0.20360612E-04 -0.10846984E-04 -0.11516301E-06 -0.10008888E-05
 -0.20616890E-06  0.54916265E-07  0.72589139E-06  0.30208378E-06  0.26716244E-06
  0.11891624E-06  0.25804534E-06 -0.35552402E-06  0.64026669E-06 -0.88664467E-06
  0.48139707E-07  0.13890199E-06 -0.31328445E-07  0.47372450E-06  0.17564607E-06
 -0.32252919E-06 -0.59702426E-06 -0.11630997E-05  0.93485906E-06  0.38747680E-07
 -0.51919819E-06  0.23506843E-06  0.60354673E-06 -0.17864782E-08 -0.16161773E-06

  0.78093803E-06 -0.65516478E-06 -0.71027765E-07  0.16871481E-06 -0.85723166E-07
  0.22374339E-06 -0.13869479E-06  0.20992265E-06  0.28556311E-06 -0.46861126E-05
  0.13980067E-04 -0.14716538E-04  0.15712339E-05 -0.15795961E-04 -0.73197793E-05
 -0.47068023E-06  0.68411263E-05  0.31404448E-04 -0.35924705E-05 -0.35028508E-05
 -0.16886951E-04  0.21434932E-04  0.11285286E-05 -0.18755337E-04 -0.30273894E-05
 -0.39618659E-05 -0.22189275E-04  0.17756929E-05  0.95935750E-05 -0.35978078E-04
 -0.25358687E-04  0.15860204E-04  0.26982980E-04 -0.28327269E-04  0.24423339E-05
  0.22945924E-08  0.80683219E-06  0.74945789E-06 -0.26493145E-06 -0.74417427E-06
  0.55034726E-06  0.34644666E-06 -0.44066768E-06  0.65075726E-06  0.49768231E-06
 -0.22957328E-04 -0.72074015E-04  0.19437834E-03  0.68868723E-05  0.12602944E-04
  0.14282310E-04 -0.15914908E-05  0.10280094E-04 -0.57097819E-06 -0.28983365E-04
 -0.30379109E-04 -0.51714334E-05  0.29449721E-04 -0.39465084E-05 -0.10337175E-04
  0.33539222E-04 -0.10546341E-04 -0.46375514E-05  0.55682101E-06  0.76892810E-06
  0.10368400E-05  0.46471954E-07  0.45782809E-06 -0.23094467E-06  0.49914441E-06
  0.22566899E-06 -0.22111232E-09  0.63209730E-06 -0.36096202E-06 -0.38560383E-06
  0.23371396E-07 -0.66869195E-07 -0.60928837E-07 -0.73495520E-07  0.34749221E-06
  0.15613255E-07  0.11229795E-06  0.18091165E-06  0.19297955E-06 -0.11929003E-06
  0.21327265E-06 -0.35877533E-08  0.22613574E-06  0.64793223E-06 -0.14106004E-06
 -0.24529937E-04  0.18204139E-04 -0.17172608E-04 -0.14350088E-04  0.22796187E-04
 -0.21842051E-05  0.52888237E-06 -0.60714082E-06  0.89682116E-05 -0.69099361E-06
 -0.23418357E-06  0.42933328E-06  0.44153809E-06 -0.15105382E-06 -0.21250525E-06
 -0.26611976E-06 -0.17473987E-06  0.73215898E-07  0.97231902E-05 -0.73415009E-06
  0.11993815E-04  0.68380223E-05  0.42847620E-05 -0.12724009E-04  0.63737479E-06
  0.32182844E-06 -0.30024156E-04 -0.12199496E-05  0.50222091E-06  0.40995083E-07
 -0.75143177E-06  0.11137488E-05  0.34508724E-06  0.44797096E-06 -0.46281204E-06
 -0.19497020E-06  0.49601035E-05  0.16813621E-04  0.18460181E-04  0.14437881E-04
  0.13207744E-05 -0.56836458E-05  0.17641502E-04 -0.18725899E-04 -0.21490217E-05
  0.10843048E-04 -0.77987139E-05  0.69389716E-05 -0.79577848E-05  0.34246149E-04
 -0.34318292E-04  0.17739564E-04  0.65244425E-04  0.46209233E-04 -0.23227116E-04
 -0.25379189E-04 -0.17449991E-04 -0.11349363E-04  0.19658261E-04 -0.18555603E-04
  0.19966282E-05  0.25316998E-04 -0.14674341E-04  0.43253962E-06 -0.12472500E-06
  0.50873789E-06 -0.18158323E-06 -0.41338277E-07  0.24174093E-06  0.86958796E-07
 -0.20801674E-06  0.23257071E-06  0.56118172E-08  0.21695573E-06  0.61674375E-06
  0.20441105E-06  0.47247452E-07  0.14711264E-06 -0.23541379E-06  0.89453602E-07
 -0.33243518E-07  0.14245690E-06 -0.19447160E-06  0.14635137E-06  0.24518578E-06
 -0.20198605E-06  0.32384704E-06  0.15887668E-06  0.49031711E-06 -0.24005355E-06

 -0.79236526E-06 -0.34640772E-06  0.46123298E-06 -0.60492146E-06  0.21208017E-06
 -0.10154597E-06  0.15948534E-06 -0.34152600E-06  0.27984250E-06  0.17699076E-04
 -0.61531088E-05  0.18558900E-04 -0.22816687E-04 -0.15649116E-04 -0.28980565E-05
  0.15226210E-05  0.41117239E-05  0.95070807E-05 -0.30148958E-05 -0.38919837E-05
 -0.93747303E-07 -0.46778635E-05 -0.17672299E-04  0.92097261E-05 -0.24361932E-04
  0.77040177E-05  0.34748402E-05 -0.22879097E-04 -0.15602379E-04 -0.48302285E-05
 -0.17482315E-04  0.14251309E-04 -0.22006374E-04  0.16419331E-05  0.58413188E-05
  0.21660289E-06  0.24185686E-05  0.23761789E-05  0.66682593E-06 -0.55239444E-07
 -0.41115902E-06  0.56527057E-06 -0.21306724E-05 -0.10584612E-05 -0.97851787E-06
  0.15174806E-04 -0.21438104E-04  0.68868723E-05  0.26210268E-03 -0.11018338E-03
 -0.78398582E-04  0.60032259E-05 -0.59898604E-05  0.22836412E-04  0.15538859E-04
 -0.59178505E-05 -0.16092728E-04  0.18331603E-04 -0.53648571E-05 -0.66454236E-05
 -0.11554243E-04  0.92280294E-05  0.44746482E-05  0.14797914E-06 -0.29545049E-06
 -0.26914276E-08 -0.42237631E-07 -0.16328323E-06 -0.33171134E-07 -0.86464033E-07
  0.99685238E-07  0.11546945E-06 -0.23738732E-06 -0.37720900E-06  0.20697037E-06
 -0.24767779E-06 -0.45457450E-06 -0.10165055E-06 -0.74468240E-07  0.41272324E-06
  0.11327798E-06 -0.70614108E-06  0.36766689E-07 -0.36492925E-06 -0.20352742E-06
  0.22839353E-06 -0.19331500E-06  0.13442717E-06  0.23942174E-06  0.23228919E-06
  0.23529988E-04  0.13177038E-04 -0.17509716E-05  0.40657122E-04 -0.13486695E-05
 -0.14321704E-04 -0.41835028E-05 -0.94423613E-05  0.65506576E-05  0.34662154E-06
  0.35768786E-06  0.57488937E-07  0.64759200E-06 -0.55136627E-06  0.30473555E-07
 -0.12346630E-06 -0.56261645E-07 -0.18734675E-06 -0.92497571E-05  0.85462306E-05
  0.45009235E-05 -0.53316039E-06 -0.70628851E-05  0.59107625E-05 -0.66569708E-05
  0.59306677E-05  0.39522376E-05 -0.39895887E-06 -0.95237816E-06  0.81886743E-06
 -0.71161564E-06  0.40859592E-06  0.52046696E-07 -0.64656339E-06  0.21699970E-06
 -0.84483756E-07  0.24408936E-04  0.95752181E-05 -0.14234805E-05 -0.16576829E-05
 -0.53943063E-06  0.24162779E-05  0.32275738E-04 -0.81032359E-05 -0.18106292E-04
  0.19411451E-04  0.20149105E-04 -0.99233859E-05 -0.45361031E-04 -0.76761761E-05
  0.12318862E-04 -0.32517404E-04  0.72717664E-05 -0.45014394E-05  0.31786384E-04
 -0.67847619E-06 -0.49252924E-05 -0.80113863E-04 -0.45735667E-05  0.62548179E-05
 -0.42571013E-04 -0.53671269E-05 -0.42484723E-05  0.25092381E-06  0.10998519E-06
  0.29517786E-06 -0.24767169E-06 -0.95393042E-07  0.14653587E-06  0.63903963E-07
 -0.41771940E-07  0.89303331E-07  0.44691098E-07 -0.47448782E-07  0.34806746E-06
 -0.40193157E-08 -0.13316322E-06 -0.50888591E-07  0.16650772E-06 -0.24786312E-06
  0.26790976E-07 -0.87251755E-06  0.21695423E-06 -0.41104702E-06 -0.68187771E-06
  0.72839023E-07 -0.24610390E-06  0.11687924E-06  0.96206709E-07  0.33225589E-06

  0.72451922E-06  0.23046337E-06 -0.25469722E-06 -0.16311192E-06 -0.72161702E-06
  0.31995816E-06 -0.33829625E-06 -0.24973020E-06 -0.20574769E-06 -0.25425500E-04
 -0.36566865E-04 -0.27103128E-04 -0.48682615E-05  0.95947905E-04 -0.10773093E-04
  0.33939616E-04 -0.13533684E-04 -0.30991942E-04  0.14097188E-04 -0.42061902E-05
  0.34600509E-05 -0.23384781E-04  0.56651200E-04 -0.18649371E-04 -0.51501111E-04
 -0.87055318E-05 -0.26419443E-04  0.29646094E-04  0.27775467E-04 -0.17058406E-04
  0.24349953E-04  0.13678174E-04  0.11860566E-04 -0.19473804E-04  0.17057946E-04
 -0.31232932E-05 -0.99386042E-06 -0.22981257E-05  0.11459012E-06  0.68454899E-06
  0.16652635E-06 -0.22987320E-06  0.18961969E-05  0.25132993E-06  0.53523125E-06
 -0.12039937E-04 -0.20814047E-04  0.12602944E-04 -0.11018338E-03  0.67305327E-03
 -0.37308343E-04 -0.48554382E-04 -0.20394609E-05 -0.81369837E-04  0.46941158E-05
  0.12382803E-04 -0.48051044E-05 -0.13800401E-04  0.57956138E-07  0.49458747E-05
  0.12748745E-04 -0.16404453E-04  0.90055344E-05 -0.24040681E-06  0.50568346E-06
 -0.54232231E-06  0.37834582E-07  0.62832440E-06 -0.25571016E-06 -0.35863799E-06
  0.85020318E-07  0.43092292E-06  0.85896319E-06  0.42388856E-06 -0.41202716E-07
 -0.56610675E-06  0.20619315E-05 -0.26711581E-06 -0.95368655E-08 -0.19022116E-07
  0.52476747E-07  0.26773204E-06 -0.11890968E-06 -0.11274737E-06  0.20578935E-06
 -0.64896505E-06  0.34777969E-06 -0.37504618E-06 -0.21337101E-06  0.44059039E-06
  0.75096304E-05  0.22123864E-04 -0.72381956E-05 -0.13310856E-04 -0.70745142E-04
  0.26195910E-04 -0.13509547E-05  0.42143873E-05  0.45063195E-05 -0.10104386E-05
 -0.28701508E-05 -0.28964198E-06  0.18805327E-06 -0.77311519E-06  0.19455376E-06
  0.44086299E-06 -0.25847232E-06  0.25695586E-06  0.25024111E-04 -0.18213515E-04
 -0.44868814E-05  0.13790536E-04  0.98846405E-04 -0.21801325E-04 -0.19052196E-05
  0.84468309E-05 -0.27635952E-04 -0.18068357E-05 -0.42858193E-07 -0.11452528E-05
  0.13738024E-05  0.65228338E-06 -0.81904571E-07  0.13553166E-05  0.94424586E-06
  0.10695833E-05 -0.61392960E-04 -0.12310401E-05  0.38759591E-04 -0.11959858E-04
  0.40905430E-04  0.52978308E-04 -0.25303351E-04  0.18997004E-05  0.15802671E-04
 -0.29127159E-04 -0.28278769E-04  0.14253822E-04  0.11816410E-03  0.62879303E-04
 -0.14030325E-04  0.10443414E-03 -0.14542593E-04  0.14739664E-04  0.46488947E-04
  0.33799278E-04  0.14829906E-04 -0.67871802E-05 -0.16538591E-04  0.11048194E-04
  0.53926962E-04  0.11106982E-04 -0.54860961E-05  0.10523502E-05 -0.83039285E-06
  0.50979797E-07  0.38883649E-06 -0.53643301E-06 -0.13891313E-07  0.68870855E-06
 -0.17655222E-06 -0.55349337E-06  0.26717136E-06  0.23947059E-06  0.74071604E-06
 -0.15174455E-06 -0.51305875E-06  0.24181584E-06  0.18036845E-05 -0.21393778E-06
 -0.11976434E-06 -0.37851843E-06 -0.65446575E-06  0.88010793E-07 -0.18954313E-06
  0.17037521E-05  0.20333285E-06 -0.10330190E-05 -0.59427840E-06 -0.10223525E-05

  0.33470251E-06 -0.44009177E-06 -0.85200126E-06  0.86709209E-07  0.23906585E-06
  0.62087671E-06  0.46632131E-08  0.41128736E-06 -0.30443966E-06  0.95983226E-05
  0.46933034E-05 -0.59205606E-05 -0.22442864E-06  0.55081003E-05  0.72136449E-05
 -0.24484463E-06  0.20559198E-04 -0.13280378E-05 -0.89149893E-05  0.93480088E-05
 -0.21606345E-04  0.16062396E-04  0.29774688E-05 -0.13552092E-04  0.13617868E-04
 -0.19869135E-04 -0.78274704E-05  0.11108241E-04  0.58165311E-05  0.18178440E-04
 -0.49346758E-05  0.72635307E-05  0.91011810E-05  0.74224216E-05 -0.76540862E-05
 -0.91452396E-07 -0.20166996E-05 -0.96899674E-06 -0.78682130E-06  0.13194435E-05
 -0.46918618E-06 -0.67657834E-06  0.71477369E-06  0.10343873E-05  0.84434403E-06
 -0.87160799E-05 -0.51331047E-05  0.14282310E-04 -0.78398582E-04 -0.37308343E-04
  0.20834866E-03 -0.22755969E-05 -0.20986149E-04 -0.62501786E-04  0.81001958E-05
  0.19905850E-04  0.21588816E-04 -0.38215512E-04  0.60111435E-05 -0.76202412E-05
 -0.23566256E-04 -0.34870012E-04 -0.51750053E-05 -0.13924723E-06  0.45947379E-06
  0.13382842E-05 -0.18588556E-07  0.11790918E-06  0.25739402E-06  0.23453371E-06
 -0.18505195E-06 -0.34150293E-06 -0.44733486E-06 -0.25968763E-06  0.62321174E-07
 -0.29188698E-07  0.73364639E-07  0.64664539E-06  0.26398615E-06  0.13146038E-06
 -0.35053873E-06  0.21164991E-06  0.30678536E-06  0.55147219E-06 -0.87608372E-07
  0.25506352E-06 -0.85177350E-07 -0.15631511E-06 -0.29449258E-07 -0.20919997E-06
 -0.11871811E-04 -0.92835171E-06 -0.98666741E-05 -0.35454252E-04  0.12266124E-04
  0.12622566E-04 -0.10656262E-05  0.12950746E-04  0.59545143E-05  0.25426479E-06
  0.73335520E-06  0.99740556E-07  0.32177539E-07  0.37902526E-06 -0.33488622E-06
  0.12730023E-07  0.15694493E-06  0.91438376E-07 -0.40294398E-06  0.10631357E-04
 -0.11713530E-04 -0.50473061E-05  0.20504622E-05 -0.98948532E-05 -0.84719067E-05
  0.28759875E-05 -0.14444657E-04  0.71318057E-06  0.10353513E-05 -0.13536777E-05
 -0.48472496E-06 -0.27232177E-07  0.28685940E-06 -0.11042339E-06 -0.60854652E-06
 -0.48020116E-07  0.16521613E-04 -0.58220626E-05 -0.25044286E-04 -0.36495607E-05
  0.22295662E-04 -0.21016260E-04  0.10159273E-04  0.13855546E-04  0.12764946E-04
  0.34540087E-04  0.14005370E-04 -0.68971829E-06 -0.14606394E-04  0.21835910E-05
 -0.36554782E-04 -0.14383071E-04  0.16882889E-04  0.20733037E-04 -0.25275080E-04
 -0.11428605E-04 -0.36154760E-05 -0.53348325E-05  0.26312231E-04 -0.75961330E-05
  0.52707285E-05 -0.21725552E-05 -0.30368114E-04  0.20102710E-06  0.10633665E-06
 -0.60944762E-06  0.51903844E-06  0.22664007E-06 -0.19797511E-06 -0.15458256E-07
  0.15025239E-06 -0.47785666E-08 -0.77664744E-07  0.93371356E-07 -0.37268690E-06
  0.49075615E-07  0.42258306E-06 -0.16974968E-06 -0.36140258E-06 -0.58367921E-07
 -0.30499739E-06  0.21526631E-06  0.16392950E-06  0.93768967E-06  0.14069782E-06
 -0.21799783E-06  0.41477119E-06  0.39558367E-06  0.50201005E-06 -0.50727284E-06

 -0.41047349E-06 -0.24431779E-06  0.28571694E-06  0.23837321E-06 -0.39120754E-06
  0.18829370E-06  0.23424323E-06 -0.33165142E-06 -0.26134041E-07  0.73759541E-05
 -0.17071898E-04 -0.43243933E-05 -0.51968085E-07  0.35836362E-05  0.10253155E-04
 -0.53658903E-04  0.31913376E-05  0.11846231E-04 -0.11249292E-04  0.27316763E-04
 -0.35193618E-05  0.26482490E-04 -0.81652907E-05  0.11835557E-04  0.11592195E-04
 -0.16408355E-04 -0.61837577E-05 -0.27427391E-04 -0.32537713E-04 -0.40432868E-05
 -0.13828493E-04  0.88323637E-05 -0.12223238E-04 -0.22542097E-04 -0.19342884E-04
  0.35427288E-05  0.61885752E-06  0.60672481E-06  0.80831603E-06 -0.24686650E-05
  0.11888226E-05  0.62329828E-06 -0.33025606E-06 -0.97215215E-06 -0.47268974E-06
  0.17583315E-04 -0.63013841E-05 -0.15914908E-05  0.60032259E-05 -0.48554382E-04
 -0.22755969E-05  0.31609567E-03 -0.36229813E-04 -0.35110851E-04  0.33358111E-04
  0.42171514E-04 -0.51129620E-06 -0.32088606E-04 -0.36566338E-05  0.21011484E-05
 -0.21610026E-04  0.18646751E-04  0.19563980E-04 -0.98243146E-06 -0.64120052E-06
  0.14680003E-06 -0.22983604E-06 -0.56336932E-06  0.24561510E-06  0.53823617E-06
 -0.30515947E-07  0.12310784E-06  0.20563849E-06  0.65108085E-06 -0.28035100E-07
  0.25163389E-06  0.13863797E-06 -0.10378971E-07  0.21696584E-06 -0.11965514E-06
  0.16467443E-06  0.88194883E-07  0.13884405E-05 -0.21898972E-06  0.40986249E-06
  0.22571659E-06 -0.17527125E-08  0.23780866E-07  0.71995811E-07  0.16721849E-06
 -0.14898235E-04  0.59044950E-05  0.73785422E-05  0.96237127E-05 -0.18019263E-04
  0.46081049E-05  0.31728368E-04 -0.12966390E-04  0.14037842E-04  0.62555311E-06
 -0.87613084E-07  0.30536339E-06 -0.49025438E-06  0.80507377E-07  0.31825627E-06
 -0.54098464E-06  0.12868929E-06  0.14641738E-06  0.31428699E-05 -0.50357821E-05
  0.25186141E-05  0.12843938E-04 -0.30402440E-04 -0.54244708E-06 -0.62419808E-05
 -0.19473718E-05  0.47954424E-05  0.21594245E-05  0.17961609E-05  0.62892690E-06
 -0.12719693E-05 -0.45577251E-07 -0.21352561E-06 -0.14197375E-05  0.92220235E-07
  0.17304083E-06  0.29534084E-04 -0.14812821E-04 -0.14449315E-04 -0.22939292E-05
  0.81017683E-05 -0.72218981E-05  0.20299176E-04  0.14585141E-04 -0.11237392E-04
  0.20513052E-05  0.25966454E-04  0.21100294E-04 -0.56769996E-04  0.27970806E-04
 -0.93277950E-06  0.30311424E-04  0.16328594E-04 -0.38076747E-05  0.64658211E-05
 -0.30764087E-05 -0.81813620E-05 -0.92137806E-05 -0.10869363E-04 -0.12478210E-04
 -0.32456113E-04  0.24123702E-05  0.20862993E-04  0.71325531E-06 -0.10194405E-06
  0.91209817E-07 -0.18478631E-06 -0.11438915E-06 -0.75724198E-07  0.34136432E-07
 -0.45238628E-07  0.45746057E-06  0.81066727E-06 -0.47878804E-06 -0.32912813E-06
  0.63885611E-06 -0.81952658E-07  0.24921370E-06 -0.95086048E-06  0.61719948E-06
  0.91646261E-07 -0.19038145E-07  0.56951464E-06 -0.29133093E-06  0.43843667E-06
 -0.14016397E-05 -0.91389392E-07  0.84948903E-06  0.69304687E-07  0.34254192E-06

 -0.17155691E-06  0.44026915E-06  0.24706881E-06  0.17982545E-06 -0.97173881E-07
 -0.24498476E-06 -0.10711291E-06  0.61925043E-07 -0.24618474E-06 -0.14197695E-04
  0.12155412E-04  0.67657127E-05  0.63465149E-05 -0.17798284E-04  0.73533877E-05
  0.25814973E-06 -0.14640709E-04  0.14587391E-04  0.19492381E-04 -0.24711623E-05
  0.13945593E-04  0.91655699E-05 -0.15040290E-04  0.64348627E-05  0.45631013E-05
  0.13824649E-04  0.16924347E-04  0.21682274E-04  0.58226655E-05 -0.12151228E-04
 -0.86805374E-05 -0.45840095E-05  0.15798170E-05 -0.11674498E-05  0.96805794E-05
  0.66151080E-05  0.24249214E-05  0.95477064E-06 -0.12039364E-05 -0.76776321E-06
 -0.39303871E-06  0.67849565E-06 -0.86202416E-06  0.96630902E-06  0.26970628E-06
 -0.82602578E-05 -0.80833909E-05  0.10280094E-04 -0.59898604E-05 -0.20394609E-05
 -0.20986149E-04 -0.36229813E-04  0.14600615E-03  0.52543652E-05 -0.19116043E-04
 -0.82415486E-05  0.22001838E-06  0.16558004E-04  0.95538546E-06 -0.77540604E-05
  0.28405269E-04  0.99515371E-05 -0.63315472E-05  0.81483722E-06 -0.22553431E-06
 -0.21512345E-07 -0.26491721E-06  0.13815362E-06 -0.32423826E-06  0.17672863E-06
  0.13482357E-06 -0.43424957E-08 -0.73986697E-07 -0.14894171E-06  0.39685588E-06
 -0.30884119E-06 -0.18789018E-06  0.73966321E-07 -0.31440460E-06  0.10026125E-06
  0.82889642E-08 -0.33594951E-06  0.21790276E-06  0.16192494E-06 -0.95197216E-07
 -0.10834579E-06  0.89391597E-07  0.20883780E-06  0.12075939E-06 -0.53436963E-07
  0.76570135E-05  0.10516696E-04 -0.12704749E-04  0.82210109E-05  0.29820682E-05
  0.38222282E-06 -0.36940323E-05 -0.10405711E-04 -0.95570628E-05 -0.41823676E-06
 -0.32539671E-06  0.15477862E-06  0.50887579E-07 -0.13785967E-07  0.21877081E-06
 -0.15301708E-06  0.12308310E-06  0.24571681E-06  0.35399138E-05  0.61340496E-06
 -0.46722297E-05  0.20619432E-04 -0.63254381E-05  0.38118789E-05  0.64444832E-05
  0.10212681E-04  0.86527562E-05  0.96811629E-06 -0.42519382E-06 -0.24716326E-06
 -0.19680587E-06  0.19607561E-06 -0.10033667E-07 -0.26396478E-06  0.23117305E-06
  0.68591147E-07  0.37229406E-05  0.28342409E-05  0.11023868E-04 -0.10682482E-04
 -0.98337142E-05  0.10204199E-04 -0.17146179E-05  0.49183320E-05  0.26002656E-04
 -0.14146215E-04  0.39510091E-05 -0.56408135E-05  0.10043810E-04 -0.90006670E-05
  0.15045162E-04  0.54639339E-05 -0.75880380E-05 -0.12551516E-04 -0.14792737E-05
 -0.54374163E-05  0.92144503E-05 -0.23413839E-05 -0.21219633E-05 -0.26851386E-05
 -0.10944372E-04  0.73155902E-06  0.15434701E-06 -0.47524635E-06  0.20409645E-06
 -0.16426410E-06 -0.28639904E-06  0.17943311E-07 -0.19247826E-06 -0.50425051E-07
 -0.19604422E-06 -0.67420547E-07  0.22633512E-06  0.26732229E-07  0.69649033E-06
  0.14844902E-06 -0.39155973E-06 -0.93873444E-07  0.10946396E-06 -0.45640792E-07
  0.11378840E-06  0.58411147E-06  0.33877904E-06  0.33517013E-06 -0.16455961E-06
  0.22335857E-06 -0.25273253E-06 -0.42420661E-06  0.13780857E-06  0.22967413E-06

 -0.27354564E-06  0.39950841E-06  0.12536072E-05  0.81310681E-06 -0.89774621E-06
 -0.53374545E-06 -0.26333216E-06  0.16751608E-06  0.82146047E-07  0.66269214E-07
  0.99038357E-05  0.26606256E-04 -0.26527457E-05 -0.16819604E-04  0.15417848E-04
  0.92441891E-05  0.45846547E-05 -0.32013365E-04  0.65173640E-05 -0.42621193E-04
  0.16373648E-04 -0.84434791E-05 -0.22627205E-04  0.29088655E-04  0.22917156E-05
  0.22246881E-04  0.14372973E-04 -0.95672844E-05  0.50620538E-06  0.31296739E-05
 -0.12064528E-07 -0.17614205E-04 -0.18459748E-04  0.32334198E-05 -0.41128993E-06
 -0.28287796E-04  0.68614699E-06 -0.18421330E-06  0.43117820E-06 -0.15821465E-05
  0.14895432E-05  0.73409634E-06 -0.14643718E-06 -0.29850549E-06 -0.13845883E-06
  0.63583441E-05  0.12894354E-04 -0.57097819E-06  0.22836412E-04 -0.81369837E-04
 -0.62501786E-04 -0.35110851E-04  0.52543652E-05  0.28893472E-03  0.15446418E-04
 -0.22006199E-04 -0.29106368E-05  0.39067344E-04  0.30653323E-04  0.50448980E-05
  0.28037211E-04  0.21965719E-04  0.24147238E-04  0.20166227E-06  0.22692315E-06
 -0.44427883E-06  0.19309080E-06 -0.33198964E-06  0.87854908E-08  0.92792594E-07
  0.73426145E-07 -0.34496281E-06  0.67418774E-07  0.50893994E-06  0.25170144E-06
 -0.46089392E-07 -0.21072367E-06  0.24684709E-06 -0.15100546E-06 -0.22583554E-06
 -0.26965307E-06 -0.35926028E-07 -0.72298500E-06 -0.46115916E-06  0.26876996E-06
 -0.35869149E-06 -0.15593994E-06  0.29605167E-06 -0.32151860E-06  0.21891321E-06
  0.44671083E-05 -0.71439918E-05  0.47582106E-05  0.18101276E-04  0.15774229E-04
 -0.11812265E-04 -0.12331957E-04  0.59293927E-05  0.83459105E-05 -0.45095293E-06
 -0.14320604E-06  0.14101757E-06 -0.14657229E-06  0.71987729E-07  0.85288165E-07
 -0.11854155E-06  0.71176844E-07  0.28960472E-07 -0.13024210E-04 -0.35585695E-04
  0.12337342E-04 -0.39281583E-05 -0.11730129E-04  0.62482141E-06  0.92531999E-05
 -0.12869728E-04  0.99992914E-06 -0.28128533E-05 -0.98002166E-06 -0.38633458E-07
  0.11182194E-05  0.11715075E-05  0.37029593E-06  0.11804414E-05 -0.17721278E-06
 -0.11713365E-05 -0.87996218E-05  0.23551305E-04  0.16714899E-04  0.26890677E-05
  0.27869650E-04 -0.22961854E-05 -0.27997664E-04 -0.23091530E-04 -0.22322796E-04
 -0.18440038E-04  0.25888470E-05 -0.22113327E-04 -0.69950130E-04 -0.11608170E-04
  0.17773132E-04 -0.58695895E-04 -0.95107128E-06  0.40782379E-04 -0.19213814E-05
 -0.47193973E-05 -0.13959734E-04 -0.49957646E-04  0.45388904E-04  0.33682325E-04
 -0.30769107E-04 -0.31010772E-05 -0.82784710E-05 -0.11820613E-06 -0.59774826E-06
  0.13006919E-06 -0.12252712E-06  0.19926387E-06  0.35646019E-06  0.19166711E-06
 -0.20749306E-06  0.67240739E-06  0.40176004E-07  0.11306541E-05 -0.12399442E-06
  0.98474563E-07 -0.12297486E-06 -0.46690990E-06  0.20117381E-06 -0.26273624E-06
  0.25584823E-06  0.13752090E-06  0.24003727E-06 -0.52981656E-06  0.17469675E-06
  0.77602679E-06  0.10536289E-06 -0.35897195E-06  0.10728342E-06 -0.28459917E-06

 -0.17912364E-06  0.25999424E-06  0.71160453E-07  0.15520125E-06  0.16135712E-06
 -0.28859801E-06 -0.77763652E-07  0.31043768E-06 -0.48380003E-06  0.10697533E-04
 -0.21823341E-05  0.23726100E-04 -0.11785995E-04  0.35189438E-06  0.73987620E-05
  0.15365240E-04 -0.31747675E-04 -0.27407766E-05 -0.17261588E-04 -0.63611272E-05
  0.32087314E-04  0.31612477E-04 -0.14427655E-04  0.94916232E-05 -0.14770532E-04
 -0.67754921E-05 -0.79340157E-06  0.94435563E-05 -0.12875772E-04 -0.12558263E-04
  0.36189004E-04 -0.43026997E-05 -0.33596632E-04  0.10248567E-04  0.18356089E-04
 -0.99105398E-05  0.44477438E-06 -0.10024243E-06 -0.91527696E-06 -0.20737075E-06
 -0.40741929E-06  0.99377107E-06 -0.72442989E-06 -0.27332608E-06 -0.67632852E-06
  0.24554688E-04 -0.43268334E-05 -0.28983365E-04  0.15538859E-04  0.46941158E-05
  0.81001958E-05  0.33358111E-04 -0.19116043E-04  0.15446418E-04  0.36535419E-03
  0.63861477E-04  0.14150088E-04 -0.30512205E-04  0.89225590E-05 -0.13759139E-04
 -0.59301836E-04  0.61822185E-05  0.15371003E-04 -0.60472883E-06 -0.20926905E-06
 -0.31453652E-06 -0.27319290E-06  0.17353641E-06 -0.15124973E-06  0.18780378E-06
  0.46436623E-06  0.62192943E-07 -0.68322802E-07  0.16721737E-06  0.11956028E-06
 -0.67132257E-06  0.42668854E-06  0.13008588E-06  0.50009848E-06  0.49502090E-06
  0.24214613E-06 -0.98830940E-06 -0.23866258E-06 -0.42174556E-06  0.88196877E-06
 -0.52889636E-06 -0.50147432E-07 -0.92057129E-07 -0.24620583E-06 -0.60404522E-07
 -0.62242365E-05 -0.30611757E-04  0.17999086E-04 -0.12506820E-04 -0.93230959E-05
  0.27971512E-05 -0.81857900E-05 -0.24700913E-05  0.30314782E-04 -0.89856363E-06
  0.33694492E-07  0.20924267E-06 -0.91564472E-06 -0.13188094E-06  0.46128991E-06
 -0.21849211E-06 -0.91131323E-07 -0.11012640E-06  0.14445915E-04 -0.38408042E-05
 -0.12409705E-05  0.67394126E-04 -0.38933526E-04  0.10122210E-04  0.15716438E-04
  0.99743729E-05  0.11448098E-04  0.14281263E-05  0.11115694E-05  0.13040079E-06
 -0.37206947E-06 -0.73789239E-06  0.77387196E-06 -0.36698853E-06  0.37746530E-06
 -0.11177580E-07  0.14620840E-04 -0.10410982E-04 -0.78322229E-05 -0.57875642E-04
  0.67951879E-05  0.81971724E-05 -0.13229785E-04  0.12974351E-04 -0.34985259E-05
 -0.16184808E-04 -0.84810674E-05 -0.29058069E-04 -0.10965031E-03 -0.20601053E-06
  0.20468967E-04 -0.59269854E-04 -0.12448396E-04  0.31573286E-04  0.19663541E-04
  0.15204242E-05 -0.34042733E-05 -0.21435916E-04 -0.17670392E-04  0.11744645E-04
 -0.19095853E-05  0.57762323E-05 -0.37888030E-05 -0.50233828E-07 -0.69323722E-06
 -0.83213396E-06 -0.13086982E-06 -0.37140854E-06  0.12952786E-06  0.18487705E-06
 -0.36692373E-06 -0.13194406E-06  0.15165664E-05 -0.23935799E-06  0.24230588E-06
 -0.18515696E-06  0.66650044E-06 -0.18854360E-06 -0.35750051E-06 -0.44815180E-06
 -0.14478891E-06 -0.55135224E-06  0.52907795E-06 -0.25557546E-07  0.50404441E-06
  0.30216066E-06 -0.76793753E-06  0.45050972E-06 -0.35411763E-07 -0.46402648E-07

 -0.43976195E-06  0.12611150E-05 -0.68639091E-06 -0.33193139E-07 -0.10386821E-05
  0.32549780E-08 -0.29111701E-06 -0.14180279E-06  0.67358261E-06 -0.64755898E-05
  0.22202282E-04 -0.18255305E-04  0.10687222E-04  0.25837106E-04 -0.59799552E-06
 -0.19897969E-04 -0.11778701E-05 -0.54327984E-05  0.15283934E-04  0.18863677E-04
 -0.14729365E-04  0.50048451E-06  0.70177960E-04 -0.17129809E-04 -0.27387680E-05
  0.15613609E-05 -0.12786502E-04 -0.14398024E-04 -0.11256131E-04  0.17821834E-05
 -0.36479525E-05 -0.50561100E-05  0.11018903E-04 -0.69810583E-05  0.85027671E-05
 -0.10893690E-04  0.93542715E-06 -0.27292131E-08 -0.63135880E-06 -0.51441491E-06
 -0.55068144E-06  0.66589621E-06  0.30842384E-06 -0.24455667E-06 -0.15876505E-06
  0.30458825E-04 -0.39945666E-04 -0.30379109E-04 -0.59178505E-05  0.12382803E-04
  0.19905850E-04  0.42171514E-04 -0.82415486E-05 -0.22006199E-04  0.63861477E-04
  0.38011417E-03  0.27524950E-04 -0.25327434E-04  0.26270691E-04  0.13028094E-04
 -0.17836613E-04 -0.82412408E-05  0.61634504E-05 -0.36309035E-06 -0.13918773E-05
  0.99703918E-06 -0.14827141E-06  0.94837413E-06 -0.15335863E-06 -0.85151384E-06
  0.12387820E-06  0.33769628E-06  0.91953375E-07 -0.87348308E-06 -0.21490891E-06
  0.16317421E-06  0.15476139E-06 -0.11377916E-06  0.47320014E-06 -0.11487450E-06
 -0.43826848E-06 -0.29761941E-07  0.14318346E-05 -0.12276384E-06  0.89709616E-07
 -0.58344358E-06  0.90816795E-07  0.17232553E-06 -0.33605119E-07  0.87160770E-07
  0.23051788E-05 -0.32536841E-04  0.15441103E-04  0.37583686E-05 -0.64067789E-04
  0.19386267E-05  0.15223280E-04 -0.66304620E-05  0.24775248E-04  0.92070351E-06
 -0.20199880E-06 -0.22361623E-07 -0.45018856E-06  0.46184500E-06  0.20615383E-06
  0.20834872E-06 -0.13086959E-06  0.48873530E-06 -0.11436289E-04 -0.77971716E-05
  0.15170560E-04  0.66158685E-05 -0.20451838E-04  0.28753872E-05 -0.64860441E-05
 -0.66381954E-05  0.34311636E-04  0.19542162E-05  0.70180333E-06  0.44895924E-06
 -0.94461346E-06  0.12429855E-05  0.63175771E-06 -0.82462024E-07 -0.25000781E-06
  0.10519359E-06  0.22643173E-04  0.71604018E-05  0.75499397E-05 -0.12383884E-04
  0.22260937E-04 -0.13196398E-04  0.21288427E-04  0.27450871E-04 -0.56985470E-05
 -0.70502457E-05 -0.62230875E-05  0.61495800E-05 -0.22981966E-04  0.24096256E-04
  0.16736782E-04  0.21474939E-04 -0.16416993E-04  0.85403914E-06 -0.17424568E-04
  0.79786796E-05  0.38149780E-04  0.15683452E-04 -0.70098323E-04  0.18847169E-04
 -0.98667150E-05 -0.17592144E-05  0.15129774E-04 -0.35314859E-06 -0.68704959E-06
  0.10489087E-06  0.15216134E-06 -0.73406593E-06 -0.36390134E-06  0.10729356E-06
 -0.10117704E-06  0.29781134E-06 -0.51608229E-06  0.14828513E-05 -0.61143638E-06
  0.21540768E-06 -0.70611067E-06 -0.42929973E-07  0.19179616E-06  0.62213820E-07
 -0.21426706E-06  0.35974598E-06  0.88423224E-06 -0.11424733E-06 -0.20509904E-06
  0.38566451E-06 -0.56372615E-06 -0.49744245E-06 -0.26666623E-07  0.15740994E-06

  0.42840852E-07 -0.10624617E-05  0.64192020E-06 -0.29998898E-06  0.18974281E-06
  0.39767923E-06  0.11243096E-06 -0.13192967E-06 -0.60932230E-06  0.93066814E-05
  0.17962104E-05 -0.14916110E-04 -0.38736556E-05  0.10799517E-04  0.17913315E-04
 -0.15194837E-05 -0.24006416E-04 -0.14660384E-04  0.71545971E-05  0.29949768E-05
 -0.40853461E-05 -0.48031848E-05  0.22796798E-04  0.71136665E-05  0.21702344E-05
  0.26483459E-04 -0.28841898E-04  0.34390026E-05 -0.41282996E-05  0.72863586E-05
  0.90046691E-05  0.12430515E-04 -0.38368751E-04 -0.21531858E-05  0.17108117E-04
  0.41636895E-05 -0.59895546E-06 -0.58880375E-06  0.12341627E-05  0.28775492E-06
 -0.51429415E-06 -0.71025910E-06 -0.17707800E-06  0.62691062E-06  0.97036362E-06
 -0.59544225E-05 -0.32797928E-04 -0.51714334E-05 -0.16092728E-04 -0.48051044E-05
  0.21588816E-04 -0.51129620E-06  0.22001838E-06 -0.29106368E-05  0.14150088E-04
  0.27524950E-04  0.17250233E-03 -0.17778952E-04 -0.83635858E-05 -0.29228834E-06
 -0.28231060E-05  0.72760258E-05 -0.22247979E-04  0.33406578E-06 -0.38439332E-06
  0.65138548E-06 -0.28418660E-06  0.30965115E-06  0.11094230E-06 -0.11710465E-06
 -0.15015574E-06 -0.30849873E-06 -0.97929034E-07  0.24402834E-06  0.43342749E-06
 -0.10922971E-06  0.99474088E-07  0.35599836E-06 -0.11166004E-06  0.13955461E-06
  0.50291278E-07 -0.36285318E-06  0.30421227E-06 -0.66669534E-07 -0.52982436E-07
 -0.60191604E-06  0.27403348E-06 -0.15275423E-06  0.96497198E-07 -0.18047711E-06
 -0.16091261E-06 -0.14599846E-04  0.13210015E-04 -0.10904271E-04  0.13112414E-04
 -0.32020683E-05 -0.46103852E-06  0.85578427E-06  0.13135496E-04  0.24293979E-06
 -0.33089123E-06  0.41807368E-06 -0.26188339E-06  0.65153765E-07 -0.17310633E-06
 -0.41389464E-07  0.59792706E-07  0.17867194E-06  0.35656386E-05 -0.31064982E-04
  0.30615189E-05  0.71277527E-05 -0.20484924E-04 -0.77272292E-05  0.13327685E-05
 -0.30139208E-06  0.24618325E-04  0.17468280E-05  0.31342011E-06  0.41641731E-07
 -0.53297139E-06 -0.49183065E-07 -0.59403288E-06 -0.65730413E-06 -0.23634616E-06
 -0.47297100E-06  0.21100045E-04 -0.82381066E-05  0.11267242E-04  0.19744364E-05
  0.14207213E-04 -0.28671145E-04  0.24190656E-04  0.34201648E-04 -0.20485621E-05
  0.33243791E-04 -0.13273249E-04 -0.36546916E-04  0.11808094E-04 -0.65487663E-05
  0.12608901E-04  0.19166914E-05  0.11976772E-04  0.26349106E-04  0.14187130E-04
  0.79009053E-05 -0.39771416E-05 -0.67907564E-04  0.57151581E-07  0.10343303E-05
 -0.34543064E-05 -0.26270616E-04  0.96830811E-05 -0.11567770E-06  0.22785658E-06
 -0.14307390E-05 -0.12839851E-07 -0.39796104E-06 -0.28090209E-06 -0.23492750E-07
  0.12669185E-06 -0.50899445E-07 -0.26007741E-06  0.47157681E-06 -0.11627163E-06
 -0.13827832E-06  0.70213935E-07  0.20362727E-07 -0.12531380E-06  0.19006145E-07
 -0.40389436E-06  0.33740987E-06  0.81176939E-06 -0.66302797E-06  0.88510430E-08
  0.75075293E-08 -0.69480006E-06 -0.17092513E-06  0.72802762E-07  0.27712421E-06

  0.66836324E-06 -0.56264492E-06  0.67372558E-06 -0.18009106E-05 -0.49492751E-07
 -0.47901694E-07  0.74681259E-07 -0.14053529E-06  0.51600132E-06 -0.21301570E-04
  0.49750353E-04 -0.37378036E-05  0.49431715E-04 -0.35818702E-04  0.41097349E-05
 -0.20840152E-04  0.77394906E-05  0.13481503E-04 -0.85406629E-05  0.87726557E-05
  0.20416861E-04  0.93243714E-04 -0.28021685E-04 -0.19727185E-05  0.26382253E-04
 -0.38014457E-05  0.15661736E-04 -0.33037729E-04 -0.13150121E-04 -0.46595727E-04
 -0.43511278E-04  0.58987394E-05 -0.78207043E-05 -0.12179512E-04 -0.44511054E-04
 -0.62485635E-05 -0.11097950E-05  0.18157196E-05 -0.24409446E-05 -0.20443431E-05
  0.10887137E-05  0.88739509E-06  0.12530284E-05 -0.83532895E-06 -0.10898538E-05
 -0.81997386E-05 -0.37737390E-04  0.29449721E-04  0.18331603E-04 -0.13800401E-04
 -0.38215512E-04 -0.32088606E-04  0.16558004E-04  0.39067344E-04 -0.30512205E-04
 -0.25327434E-04 -0.17778952E-04  0.73640968E-03 -0.15934017E-03 -0.11363980E-03
  0.12609750E-03  0.34082607E-04 -0.10067574E-04  0.22591492E-06 -0.56027483E-06
  0.11342580E-05  0.12105843E-06  0.58249959E-07 -0.95581477E-07 -0.36408624E-06
  0.36460105E-06 -0.25628366E-06 -0.34086647E-07  0.87190332E-06 -0.60492514E-06
 -0.55218296E-06 -0.93676112E-06  0.54790339E-06 -0.73989895E-06  0.53660229E-06
 -0.22020312E-06 -0.93475435E-06  0.61547744E-06  0.24140300E-06  0.83577212E-06
 -0.34180821E-06 -0.82683399E-06  0.14574595E-06 -0.58294169E-06  0.24359838E-06
  0.51480355E-05  0.17323411E-04  0.20603556E-04 -0.15176074E-04 -0.23738217E-05
  0.25183856E-04  0.66197047E-05  0.43558895E-05 -0.22741702E-04  0.10764354E-05
  0.62396037E-06 -0.74008297E-06 -0.52672923E-06  0.29532049E-06 -0.14980919E-06
 -0.90054065E-06 -0.85808326E-08 -0.39509939E-06  0.11074794E-04 -0.11231141E-04
  0.81271751E-05 -0.20232759E-04  0.24434401E-04 -0.21325050E-04  0.75449739E-04
 -0.43433488E-04  0.18485573E-04  0.25739989E-05  0.25163009E-06  0.34928750E-06
  0.24000877E-05  0.17557645E-05 -0.90242300E-06  0.19564292E-05  0.11645210E-05
  0.92353085E-06 -0.26357570E-04  0.16415794E-04 -0.17434755E-04 -0.54915520E-04
 -0.18440134E-04  0.44699678E-04  0.49774568E-05  0.10907994E-04  0.30478696E-04
  0.33258743E-04  0.22774683E-04  0.80088494E-05 -0.69129051E-04 -0.12443641E-04
  0.29711822E-04  0.13472104E-04  0.63492899E-04  0.91679414E-05  0.36701643E-04
  0.34151363E-04 -0.21607132E-04  0.13436042E-03 -0.35940119E-05 -0.31540048E-04
  0.36305365E-04 -0.44122876E-04 -0.32745608E-04  0.31953604E-06 -0.56992925E-06
 -0.13475270E-05  0.69997376E-06 -0.76067777E-06 -0.84503603E-07 -0.43548716E-06
  0.13622323E-06 -0.17014840E-06  0.60331404E-06 -0.10293977E-06  0.37359805E-06
 -0.19484816E-06 -0.23368867E-06 -0.10501057E-06 -0.53727637E-06  0.53742089E-06
 -0.32659847E-07 -0.30256821E-06  0.33084751E-06 -0.26052406E-07  0.53264925E-06
 -0.15787806E-06 -0.30832433E-06 -0.48984047E-06  0.77290880E-07 -0.48712708E-07

 -0.53037594E-06 -0.22395457E-06  0.57959870E-06  0.84210672E-06 -0.13631966E-05
  0.53942924E-06  0.68942029E-07  0.25152357E-06 -0.42631049E-06  0.21355976E-05
  0.83355706E-05  0.54282010E-05 -0.19577222E-04  0.57333171E-04  0.12342610E-04
  0.21931904E-04  0.19774183E-04 -0.52493183E-04 -0.15066353E-04 -0.28644999E-04
  0.22606694E-04 -0.24579287E-04  0.14419133E-04  0.66093416E-06  0.19162035E-04
 -0.98964774E-05  0.19612544E-04 -0.38266612E-04  0.46019647E-04  0.40326542E-04
  0.28329459E-04 -0.63350816E-07 -0.85518704E-05  0.16886157E-04  0.21823125E-04
  0.95278870E-05 -0.15844985E-07  0.19176913E-05 -0.31765112E-06  0.29520286E-06
 -0.92227044E-06 -0.14887917E-06  0.90613896E-06 -0.15703244E-06 -0.83115961E-06
 -0.42297225E-05  0.76629439E-04 -0.39465084E-05 -0.53648571E-05  0.57956138E-07
  0.60111435E-05 -0.36566338E-05  0.95538546E-06  0.30653323E-04  0.89225590E-05
  0.26270691E-04 -0.83635858E-05 -0.15934017E-03  0.64387938E-03 -0.53858011E-04
  0.11114425E-03  0.98404071E-05  0.46042029E-04 -0.64940513E-06 -0.64297468E-06
 -0.81660321E-06  0.38533759E-06 -0.73874659E-06 -0.33750914E-07 -0.27688206E-06
  0.17807013E-06  0.10428079E-06 -0.16043434E-06  0.85895503E-07  0.13670781E-06
  0.15065935E-06 -0.53932499E-06  0.57195757E-06  0.23455092E-06 -0.43365259E-07
 -0.75922778E-07  0.64954237E-06 -0.30280309E-05  0.74202221E-06 -0.35931966E-06
  0.18272168E-05 -0.14275076E-06  0.58512757E-06  0.22795634E-06 -0.94661404E-07
 -0.19717346E-04 -0.39436859E-04 -0.11109011E-04  0.10230725E-05  0.42667854E-04
 -0.14625416E-04  0.75999636E-05  0.10399524E-04 -0.53825269E-05  0.20197447E-06
  0.17332459E-05  0.22769648E-06  0.11967114E-07  0.30502161E-06  0.18717321E-06
 -0.92432332E-06 -0.13000875E-06  0.41782391E-06 -0.82125744E-05 -0.32869523E-04
  0.12241123E-04  0.28694565E-04 -0.17892694E-04 -0.42952410E-05 -0.14900112E-04
 -0.33708989E-05 -0.16873438E-05 -0.58772754E-06 -0.14611103E-05 -0.13726175E-05
 -0.25568431E-06  0.77356780E-06 -0.52178693E-06 -0.68741642E-06 -0.53239576E-06
 -0.31296947E-06  0.21176386E-04  0.84070271E-05 -0.38203085E-05  0.39169415E-06
  0.12730909E-03 -0.47846032E-05  0.69034042E-05 -0.18965507E-04  0.20532688E-04
 -0.37952531E-04 -0.44731081E-04  0.27135648E-05 -0.88331537E-04  0.87638995E-04
 -0.28359522E-04 -0.21823329E-04 -0.65364087E-04 -0.22409343E-04 -0.34307225E-04
 -0.31640319E-04  0.24048300E-04 -0.58175805E-04 -0.20717042E-05  0.11990301E-04
 -0.66851385E-04  0.39482068E-05  0.26870223E-06  0.41687240E-06  0.45298048E-06
  0.91874095E-07 -0.49202541E-06  0.22410256E-05  0.15833096E-06 -0.16077606E-06
  0.81287207E-07  0.52498443E-06  0.17292099E-06  0.16046723E-05 -0.48898170E-06
  0.15214665E-06 -0.11549945E-05  0.12218901E-06  0.31550848E-06  0.10183901E-06
 -0.50844205E-06 -0.21792587E-06  0.28905306E-06  0.85811308E-07  0.13956316E-06
  0.55672872E-06 -0.68710416E-07 -0.52179187E-06  0.32610528E-06  0.15875099E-06

 -0.36769379E-06  0.35029039E-06 -0.81912734E-07  0.53097009E-06  0.38401459E-07
 -0.65184649E-06  0.30876238E-07 -0.63369933E-06  0.15857920E-06  0.19487483E-06
 -0.26080779E-05 -0.11436599E-04 -0.18434653E-06 -0.19238499E-05 -0.62557010E-05
 -0.81424652E-05 -0.15561630E-04 -0.78325310E-05 -0.24342829E-05 -0.46585101E-05
  0.31628237E-05 -0.16155485E-04 -0.51376404E-05  0.62680595E-05 -0.84270234E-05
  0.11102178E-04 -0.11456003E-04  0.17624853E-04  0.30367458E-05  0.10873413E-04
  0.11328448E-05 -0.24984914E-05  0.40749620E-05 -0.71951699E-05 -0.50613517E-05
 -0.13123154E-04 -0.73061533E-06 -0.20092266E-05  0.19380501E-05  0.58116238E-06
 -0.77395835E-06 -0.42886533E-07 -0.25057663E-06  0.43167964E-06  0.72712044E-06
 -0.65012529E-05 -0.20762242E-05 -0.10337175E-04 -0.66454236E-05  0.49458747E-05
 -0.76202412E-05  0.21011484E-05 -0.77540604E-05  0.50448980E-05 -0.13759139E-04
  0.13028094E-04 -0.29228834E-06 -0.11363980E-03 -0.53858011E-04  0.16812758E-03
 -0.13585971E-04  0.59611994E-05  0.27077934E-04 -0.40055055E-07  0.19635018E-06
 -0.50498669E-06 -0.14755232E-06  0.14478823E-06  0.24106293E-06  0.12315915E-06
 -0.63342719E-07  0.24811829E-06 -0.20140905E-06 -0.52762268E-06  0.65762074E-06
  0.47711988E-06  0.39650762E-06 -0.44790407E-06  0.97064790E-07 -0.33062689E-06
 -0.95820065E-07  0.14449766E-06 -0.17965476E-06 -0.42310755E-06 -0.73549172E-07
 -0.22484112E-06  0.25339841E-06  0.38901397E-07  0.18375531E-06 -0.20258025E-06
 -0.40901932E-05  0.18921730E-05  0.62299058E-05  0.55810683E-05  0.46023110E-05
 -0.22479233E-04  0.23241699E-05  0.39817440E-05  0.10876847E-04 -0.48904715E-06
 -0.62197215E-06  0.30205213E-06 -0.24869670E-06  0.10428302E-06 -0.34811663E-07
  0.50022298E-07 -0.53950999E-07 -0.20509230E-07 -0.22256786E-04 -0.13637404E-05
  0.43111064E-05 -0.79458525E-05 -0.14776128E-04  0.17822653E-04  0.44175169E-05
  0.43181077E-05  0.79264017E-05 -0.34458034E-07  0.38108577E-06  0.11875786E-05
 -0.59536447E-06 -0.61829197E-06  0.28353055E-06 -0.54044108E-06  0.20368665E-06
 -0.54514123E-06  0.11656167E-04  0.13067526E-04  0.15584469E-04  0.11442099E-04
 -0.18939469E-04  0.14717309E-06  0.11171802E-04 -0.17704783E-05 -0.19281166E-04
  0.21818091E-04  0.57819802E-05  0.68476364E-05  0.21726645E-04 -0.82648237E-05
 -0.70931345E-05 -0.90735343E-06  0.29377953E-04  0.96856993E-05 -0.29263233E-04
  0.56902726E-06 -0.37139056E-05 -0.15132129E-04 -0.13979163E-04  0.29188467E-04
  0.44024138E-05 -0.80495809E-05  0.29382901E-04 -0.44873066E-06 -0.24916740E-06
  0.16366928E-05 -0.10507402E-06 -0.17756377E-06  0.87359560E-07  0.19669235E-06
 -0.23471738E-06  0.38227856E-06 -0.11866861E-06  0.36321931E-06 -0.30560477E-06
  0.25280156E-07  0.62517907E-06 -0.50142166E-06 -0.15224136E-06 -0.90660599E-07
  0.33693009E-06  0.57459718E-06 -0.50973180E-06 -0.59109877E-06 -0.18515042E-06
  0.17273652E-06  0.38847662E-06 -0.46744322E-07  0.26127561E-07 -0.17146891E-06

 -0.29200188E-06 -0.14424289E-05  0.32250903E-06  0.64380211E-06 -0.34048390E-06
 -0.15835049E-06 -0.34456089E-07 -0.44531261E-06  0.78000162E-07 -0.36057170E-05
  0.14521889E-04 -0.13916648E-04  0.90404186E-05 -0.26877747E-04  0.22118213E-04
  0.12209589E-04  0.64111244E-05 -0.52051235E-04 -0.62149511E-04  0.23516251E-04
  0.12984349E-04 -0.47087702E-05  0.88782758E-05 -0.99569755E-06  0.49328239E-04
  0.32723263E-05  0.18697553E-05 -0.14462509E-04  0.42750123E-04  0.66442728E-05
  0.11728085E-04  0.18654946E-04  0.77275716E-06 -0.50356301E-04  0.77976921E-05
  0.20824693E-04 -0.33232889E-06  0.18883332E-05  0.64223970E-06  0.37592757E-06
 -0.91018329E-06 -0.48562020E-06  0.74377224E-06 -0.12233722E-06  0.29572864E-06
 -0.39350298E-04  0.98159945E-05  0.33539222E-04 -0.11554243E-04  0.12748745E-04
 -0.23566256E-04 -0.21610026E-04  0.28405269E-04  0.28037211E-04 -0.59301836E-04
 -0.17836613E-04 -0.28231060E-05  0.12609750E-03  0.11114425E-03 -0.13585971E-04
  0.48697237E-03  0.33696760E-04  0.97128816E-05 -0.13787603E-05  0.28620737E-06
 -0.60851978E-06  0.71750549E-07 -0.15233626E-07  0.12178610E-08 -0.18294341E-06
 -0.12136270E-06 -0.34980099E-06  0.12656636E-06  0.38322866E-06  0.61491503E-06
  0.10338422E-06  0.51552448E-06  0.50231305E-06 -0.76500082E-06 -0.21754321E-07
 -0.53549176E-06 -0.18003339E-06 -0.10160504E-05  0.23568383E-06 -0.30040967E-06
  0.57092993E-06 -0.22363231E-06 -0.25508398E-06 -0.19776048E-06  0.19336839E-06
 -0.14524308E-04 -0.47077852E-04  0.95874391E-05  0.38452346E-05  0.68873857E-05
  0.30057688E-05 -0.49147779E-05 -0.25470176E-06 -0.74434710E-05 -0.89082410E-06
  0.18907579E-05 -0.85863245E-07 -0.77392242E-06 -0.12875102E-06  0.45421100E-06
 -0.13042919E-05  0.16066087E-06  0.60139518E-08 -0.18364563E-04 -0.35523951E-04
  0.25683626E-05  0.27530491E-04  0.40112714E-04 -0.22701214E-04 -0.11176241E-04
 -0.15211273E-04  0.75011859E-05  0.22317968E-05 -0.10496404E-05  0.89460855E-08
 -0.17703648E-05  0.12513660E-05 -0.27523695E-07  0.30654683E-06 -0.54260507E-06
  0.35938298E-06  0.37033880E-04  0.99723840E-05 -0.53551641E-05  0.38859871E-04
  0.62889671E-04 -0.36979660E-05  0.68146588E-04 -0.13629794E-04  0.24799659E-05
 -0.54456565E-05  0.15075160E-05  0.66403545E-06 -0.97151365E-04  0.53204338E-05
 -0.13333664E-04  0.54615844E-05  0.69318826E-05 -0.21386680E-04 -0.37022616E-04
  0.96834122E-05  0.22597854E-05  0.18252435E-04 -0.80663213E-05 -0.10041223E-04
  0.17347331E-05 -0.65358677E-05 -0.80821990E-05  0.19324385E-06 -0.15375784E-06
 -0.23752680E-06  0.92011859E-08 -0.46885939E-06  0.85783773E-07 -0.10233917E-07
 -0.23069784E-06  0.61105864E-06 -0.77091174E-06  0.19366620E-05 -0.13158558E-06
 -0.27977061E-06 -0.37070327E-06  0.19511174E-06 -0.20459581E-06  0.23876456E-06
 -0.39826369E-06  0.12127959E-05  0.28301131E-07  0.94616989E-07  0.54468328E-06
  0.10165082E-05  0.25364651E-06 -0.72816681E-06  0.14395754E-06 -0.11683062E-06

  0.28029777E-06  0.90674822E-07 -0.11733074E-06  0.38544485E-07 -0.20997743E-06
 -0.17219454E-08  0.41273671E-06  0.13947771E-07  0.47833815E-06  0.12162522E-04
  0.13425148E-04  0.19514595E-04  0.68684712E-05 -0.13560802E-04  0.24591212E-04
 -0.23680326E-05 -0.10208923E-04 -0.57224426E-05  0.10910779E-04 -0.13799503E-04
 -0.22926893E-05  0.29267940E-05 -0.35805161E-04  0.18089554E-04  0.97391561E-05
  0.13465758E-04 -0.11601990E-04 -0.13189598E-04  0.64422026E-05  0.39540826E-05
  0.32651222E-04 -0.10270850E-04  0.62303735E-06 -0.88271806E-05  0.31020307E-05
 -0.49948526E-06 -0.61593671E-06  0.66670799E-06 -0.13377168E-05 -0.12632531E-05
  0.48784704E-06  0.55949291E-06  0.12213712E-06  0.19352129E-06 -0.10528283E-05
  0.72380962E-05  0.31161385E-04 -0.10546341E-04  0.92280294E-05 -0.16404453E-04
 -0.34870012E-04  0.18646751E-04  0.99515371E-05  0.21965719E-04  0.61822185E-05
 -0.82412408E-05  0.72760258E-05  0.34082607E-04  0.98404071E-05  0.59611994E-05
  0.33696760E-04  0.20521260E-03  0.29957244E-04  0.62661826E-06 -0.80228115E-07
 -0.27821192E-06  0.59853022E-07  0.11036536E-06  0.80593625E-07  0.45922173E-08
 -0.89918943E-07 -0.13320189E-08  0.16247530E-06  0.94576202E-07 -0.45289774E-06
  0.13652971E-06 -0.32541367E-06  0.42749006E-06 -0.38375460E-07  0.26741168E-06
 -0.24198378E-06  0.28428034E-06  0.79572795E-07 -0.77578553E-07  0.25946295E-06
 -0.19412367E-07  0.35352731E-08  0.20072589E-07  0.42292969E-06 -0.25597424E-06
  0.15340707E-04 -0.11418794E-04 -0.77655249E-05  0.10803204E-04  0.97199286E-05
 -0.61648960E-05  0.64857957E-05 -0.25374930E-04 -0.66512381E-05  0.22687721E-06
 -0.58836957E-06  0.67660328E-06 -0.46315309E-06  0.50452999E-06  0.56457732E-06
 -0.18410328E-06  0.34817715E-06 -0.10814431E-07  0.99858769E-06 -0.37790446E-04
 -0.57971996E-05  0.19953657E-04 -0.19472996E-04  0.13021190E-04  0.10619257E-04
 -0.96046758E-05  0.25081510E-04  0.99857798E-07 -0.24922163E-06  0.13013981E-05
 -0.60398380E-07  0.20464389E-06 -0.81506096E-06 -0.54005464E-06  0.80703928E-07
 -0.45970709E-06  0.40178572E-05  0.73702671E-05  0.45439361E-05  0.60532372E-05
 -0.48040299E-05 -0.33546627E-05  0.62607632E-06 -0.52761984E-04 -0.11654423E-04
 -0.17871142E-05 -0.13335878E-04 -0.28027104E-04 -0.70432155E-04 -0.65244384E-05
  0.13471216E-04 -0.33768559E-04  0.46860230E-04  0.93583911E-05  0.11008689E-04
  0.27054001E-06  0.60489367E-05  0.17254797E-04 -0.13998147E-04  0.24689702E-05
  0.98547259E-05 -0.34069816E-04  0.14875403E-04 -0.58660411E-06 -0.13522369E-07
 -0.68578535E-06 -0.11126357E-06 -0.13830440E-06 -0.87139421E-07 -0.30166330E-07
  0.14163479E-06  0.48105821E-06 -0.61325861E-06  0.10714897E-05 -0.14372585E-06
  0.48974216E-06  0.11710419E-08 -0.38388350E-08  0.69716630E-07  0.47663692E-06
 -0.67800736E-07  0.66855344E-06 -0.40507892E-06 -0.93324900E-07  0.66690250E-06
 -0.16763013E-06  0.50830900E-07 -0.19418469E-06  0.53277103E-07  0.23144252E-06

  0.29875931E-06 -0.22104069E-06 -0.97676939E-07  0.23840351E-06 -0.83299794E-06
  0.62179276E-06 -0.44901120E-07  0.11369003E-06  0.56906865E-07  0.78934990E-05
 -0.21913161E-04 -0.61102946E-05 -0.35444175E-05 -0.68285381E-06  0.18809683E-04
 -0.77756732E-05 -0.24518753E-05 -0.11547870E-04 -0.30814565E-05 -0.13171037E-04
 -0.14818766E-04 -0.95854505E-05 -0.37776062E-04  0.22580093E-04 -0.32814444E-05
  0.55842205E-06 -0.21176871E-04 -0.10501691E-04  0.12890425E-04  0.24963251E-05
 -0.13511669E-05  0.61086408E-05  0.14704403E-04  0.81083207E-06  0.12650224E-04
  0.92699403E-06  0.31569511E-07  0.65432116E-06 -0.21864490E-05 -0.10953410E-05
 -0.58015280E-06  0.20898355E-05  0.11208845E-06 -0.73225865E-06 -0.11770965E-05
  0.12532953E-04  0.15865721E-04 -0.46375514E-05  0.44746482E-05  0.90055344E-05
 -0.51750053E-05  0.19563980E-04 -0.63315472E-05  0.24147238E-04  0.15371003E-04
  0.61634504E-05 -0.22247979E-04 -0.10067574E-04  0.46042029E-04  0.27077934E-04
  0.97128816E-05  0.29957244E-04  0.22924352E-03  0.60637953E-07  0.46347075E-06
  0.55094343E-06 -0.13727426E-07  0.17988650E-06  0.37573589E-06  0.29148795E-06
  0.44125153E-07  0.26533905E-06  0.26687071E-06  0.43535823E-06  0.43393327E-07
  0.24506065E-06 -0.29162021E-07 -0.12061460E-06 -0.66584549E-07  0.16774172E-06
 -0.16885643E-07 -0.66220009E-07 -0.21386428E-06  0.39812490E-06  0.22576578E-06
 -0.11610912E-06 -0.11517420E-06 -0.18887072E-06 -0.40842051E-07 -0.11411508E-06
  0.61547139E-06 -0.21243314E-05 -0.91627217E-05  0.66871940E-05  0.19128620E-04
 -0.12522689E-04  0.12926256E-04  0.36107077E-05  0.65060158E-05 -0.37741382E-07
 -0.62930838E-06 -0.15107835E-06  0.11261319E-06  0.26625435E-06 -0.12369973E-06
 -0.10086022E-06 -0.92410461E-07 -0.37502045E-06  0.11406513E-04 -0.16296298E-05
  0.68805407E-05  0.94568530E-05 -0.17918888E-04  0.30701318E-05  0.11929401E-05
 -0.40819786E-06 -0.97158707E-06 -0.22345901E-06  0.79567272E-07 -0.11690683E-06
 -0.18310864E-06 -0.69483891E-06 -0.20529203E-07 -0.91648900E-06  0.49637660E-06
  0.34359312E-06  0.11892093E-05  0.53268521E-05 -0.84076278E-05  0.11722169E-05
 -0.38820802E-05 -0.80105421E-06 -0.62573324E-05 -0.10790333E-04 -0.23410170E-05
  0.11696137E-04  0.11087326E-04  0.26195257E-05 -0.24325834E-04 -0.17936320E-04
 -0.16998469E-04 -0.37600000E-04  0.28562483E-05  0.15611076E-04 -0.21570615E-04
 -0.16214106E-04 -0.21873180E-04  0.96085927E-05  0.65874462E-05  0.13035798E-05
 -0.78134818E-05  0.12663319E-04  0.31322886E-05 -0.21974304E-06 -0.12261878E-05
 -0.17375444E-08 -0.12463346E-07  0.29148599E-06 -0.62050669E-07  0.18735626E-06
  0.94451533E-07  0.11813666E-05 -0.56505994E-06  0.62679800E-06 -0.93494096E-06
  0.14138423E-06  0.38903087E-06 -0.13075904E-06  0.90427192E-07  0.53997227E-07
 -0.17247997E-06  0.28635957E-07 -0.11706954E-06  0.30176800E-06  0.33306308E-08
  0.76264992E-06  0.11755483E-07 -0.15130884E-06 -0.87768929E-07 -0.22188658E-06

  0.34130085E-07 -0.91499621E-08 -0.15060116E-07 -0.24641568E-07  0.30686756E-07
  0.84641755E-09 -0.12546183E-07 -0.34468427E-08  0.89921598E-08 -0.11113056E-05
 -0.42999647E-06  0.12332295E-06  0.35112433E-06 -0.38788668E-06 -0.97327261E-07
  0.25911857E-06  0.10870239E-06 -0.34140020E-06  0.27427469E-05 -0.27444278E-06
  0.14372602E-06  0.13840394E-05 -0.82475652E-06 -0.64305070E-06  0.74288527E-06
 -0.62798789E-07 -0.44620572E-06  0.50885560E-06  0.37075979E-06 -0.87344300E-06
 -0.14230451E-05 -0.39877841E-06 -0.18909889E-06 -0.64193491E-06  0.50278173E-06
 -0.13902569E-06  0.81788388E-07  0.25653496E-07  0.10984151E-07 -0.17944835E-07
  0.33822696E-07  0.11797973E-07  0.19089659E-08  0.12520378E-07 -0.15035623E-07
  0.82539635E-06 -0.83509993E-06  0.55682101E-06  0.14797914E-06 -0.24040681E-06
 -0.13924723E-06 -0.98243146E-06  0.81483722E-06  0.20166227E-06 -0.60472883E-06
 -0.36309035E-06  0.33406578E-06  0.22591492E-06 -0.64940513E-06 -0.40055055E-07
 -0.13787603E-05  0.62661826E-06  0.60637953E-07  0.77502150E-06  0.21301230E-07
  0.11892930E-07 -0.19515634E-07 -0.70515617E-08  0.16523182E-09 -0.72150521E-08
 -0.14134150E-07 -0.71134155E-08 -0.28361713E-07 -0.11972936E-07 -0.13237529E-07
  0.79814377E-08 -0.81825371E-08  0.13467010E-07 -0.10351020E-07  0.33115331E-07
 -0.47410146E-08  0.32222963E-07  0.13964658E-07 -0.32784629E-07  0.31490880E-08
 -0.25596248E-07  0.26339891E-08  0.43837887E-08 -0.17056570E-07 -0.14850811E-07
  0.19860578E-06  0.25187578E-06 -0.47316434E-06  0.12020372E-05  0.45401085E-06
 -0.32797090E-07  0.20155190E-06 -0.14230213E-06 -0.24271395E-06  0.43164693E-07
  0.66864673E-08  0.16828722E-08  0.50142058E-07  0.29904913E-07  0.56496505E-08
 -0.27005327E-08  0.50421703E-08  0.76047133E-08  0.10145715E-05  0.65779994E-07
  0.35309812E-07 -0.54657621E-06 -0.18069794E-06  0.40962060E-06 -0.76561543E-07
  0.56843414E-06 -0.67944151E-07  0.97553174E-08 -0.21939902E-07  0.42284586E-07
  0.22505327E-07  0.59832973E-08 -0.63321034E-08 -0.15204035E-07  0.95380862E-08
 -0.14285294E-07 -0.44030749E-06  0.21898372E-06  0.17260532E-06 -0.77492884E-06
  0.91583815E-06 -0.71156878E-06  0.92549991E-07 -0.13001863E-05 -0.75496891E-06
 -0.14351555E-06  0.46561778E-06 -0.78349079E-06 -0.17076693E-05 -0.10458836E-06
  0.13855167E-06 -0.43480302E-06  0.18944042E-05  0.85503083E-06 -0.73400652E-06
  0.24294731E-06 -0.63529783E-06  0.19223372E-05  0.25184659E-06 -0.22970651E-07
 -0.11821599E-06  0.13147951E-06 -0.39637135E-06 -0.19547224E-07 -0.10136801E-07
 -0.23611469E-09 -0.51328486E-08 -0.17680687E-07 -0.85042425E-09  0.19738219E-07
 -0.54232816E-08  0.81787719E-08 -0.59731146E-07  0.16161448E-07  0.13012053E-07
  0.26320685E-07 -0.18228614E-07  0.12852923E-07  0.38497623E-07 -0.12275577E-07
  0.85049076E-08 -0.83627172E-08  0.46951755E-07 -0.22859462E-08 -0.38721684E-08
  0.32971450E-08  0.90401756E-08 -0.98726682E-08  0.16172954E-07 -0.69903920E-08

  0.13895148E-07 -0.58270689E-07 -0.81338569E-08 -0.89010646E-08 -0.23807720E-07
  0.25783990E-07  0.17016055E-07  0.12204013E-07  0.14157973E-07  0.38406737E-06
  0.24183333E-06  0.16871375E-06  0.45234403E-06 -0.97846730E-06 -0.93943539E-07
  0.10364332E-05  0.42282423E-06 -0.79218254E-06 -0.40417340E-08 -0.44149249E-06
 -0.67805344E-07 -0.84855230E-06 -0.24543552E-05  0.58045828E-06 -0.11951561E-05
  0.25314953E-07 -0.11831063E-05  0.49194888E-06  0.11431916E-05 -0.89043258E-06
 -0.56185839E-06  0.87431431E-06  0.49949144E-06 -0.34372342E-06 -0.27599014E-06
  0.64349414E-06  0.16310466E-07  0.75173910E-07 -0.93845682E-08  0.11413306E-07
  0.30055968E-08 -0.23128566E-08 -0.16938061E-07  0.25093627E-07  0.50748566E-07
  0.45985253E-06  0.13511862E-05  0.76892810E-06 -0.29545049E-06  0.50568346E-06
  0.45947379E-06 -0.64120052E-06 -0.22553431E-06  0.22692315E-06 -0.20926905E-06
 -0.13918773E-05 -0.38439332E-06 -0.56027483E-06 -0.64297468E-06  0.19635018E-06
  0.28620737E-06 -0.80228115E-07  0.46347075E-06  0.21301230E-07  0.12174251E-05
  0.27299309E-07 -0.53171018E-08  0.19981860E-07  0.13594030E-07  0.16695483E-07
  0.10905581E-08 -0.54445574E-07  0.14532516E-07 -0.51562967E-07 -0.22920815E-07
 -0.96674188E-08 -0.19542311E-07 -0.11948566E-07 -0.17796667E-07  0.21340814E-07
  0.43151519E-07 -0.18752330E-08 -0.39588015E-07  0.15143918E-07 -0.95419443E-08
  0.27831274E-08  0.18030067E-07 -0.45576185E-08  0.37566232E-08 -0.47087391E-07
 -0.47508737E-06  0.80087603E-07 -0.84745030E-06  0.71446893E-07 -0.12953922E-06
 -0.60724417E-06  0.29949014E-06  0.78804305E-06  0.57532797E-06 -0.34938182E-08
  0.87159000E-07  0.97310054E-08  0.42446469E-08  0.15501243E-08 -0.12898823E-07
  0.36477340E-07 -0.46392271E-08  0.10934925E-07  0.67464891E-06 -0.18614451E-05
  0.46953280E-06 -0.30377060E-06  0.35079068E-06 -0.29707822E-06  0.77033251E-07
  0.18929093E-07  0.16634197E-06  0.86575594E-08  0.22641584E-07  0.49853195E-07
  0.45758814E-07 -0.26335529E-07  0.40166322E-08 -0.47347396E-08 -0.40797870E-07
  0.75835072E-08  0.27799315E-06  0.64662980E-06  0.17994613E-07  0.72565428E-06
  0.11147757E-05 -0.66535603E-06 -0.14012093E-05  0.79433512E-07 -0.10606518E-05
 -0.11362433E-05  0.69474864E-07 -0.48213419E-06 -0.99912517E-06 -0.45135495E-05
 -0.91036990E-07 -0.38557169E-05  0.55587358E-06  0.99078389E-06  0.27487739E-06
  0.52329806E-06 -0.32646175E-06  0.16736937E-05  0.25562531E-05 -0.28827690E-06
  0.77245608E-06  0.52906848E-06 -0.68822520E-06 -0.50194356E-08 -0.84506068E-07
  0.13256459E-07  0.17323373E-07  0.45653145E-07  0.90445630E-08  0.11229650E-07
 -0.82864721E-08 -0.11449815E-07 -0.31079836E-07  0.78658867E-07 -0.16756787E-07
  0.11513258E-07  0.66008976E-08 -0.92971377E-09  0.39452046E-08  0.30646681E-08
 -0.24480937E-07  0.12537585E-07  0.49472422E-07  0.40873248E-07 -0.10483160E-07
  0.31663524E-07  0.33524198E-08  0.58800662E-08 -0.14160095E-07  0.77169707E-08

  0.23686543E-07 -0.10091479E-07  0.14827700E-08 -0.42767933E-08  0.92850741E-09
  0.12840390E-07 -0.79459312E-08  0.13163738E-07 -0.77834525E-08  0.22755499E-06
  0.14790406E-06 -0.16772153E-06  0.34127024E-06 -0.10382088E-06 -0.31771760E-06
 -0.84376319E-07  0.34039976E-06  0.52707883E-06  0.32048832E-06  0.81671849E-07
 -0.70129622E-06 -0.23936266E-06  0.38993273E-06 -0.19533428E-06 -0.98690963E-07
 -0.11456019E-06 -0.12418813E-05 -0.10506869E-05 -0.19857925E-06  0.20619426E-06
 -0.74351023E-07 -0.14813724E-06  0.45631142E-06  0.19307653E-06  0.34823722E-06
 -0.53046822E-06  0.18988624E-07 -0.22567998E-07 -0.47393226E-07 -0.75016194E-08
 -0.54304497E-08  0.28584157E-07 -0.16277769E-07  0.82651344E-08  0.25471964E-07
 -0.54396021E-07 -0.41531356E-06  0.10368400E-05 -0.26914276E-08 -0.54232231E-06
  0.13382842E-05  0.14680003E-06 -0.21512345E-07 -0.44427883E-06 -0.31453652E-06
  0.99703918E-06  0.65138548E-06  0.11342580E-05 -0.81660321E-06 -0.50498669E-06
 -0.60851978E-06 -0.27821192E-06  0.55094343E-06  0.11892930E-07  0.27299309E-07
  0.46518651E-06 -0.24883178E-08 -0.93328330E-08  0.50199523E-07  0.37052539E-08
  0.62035754E-08 -0.15806464E-07  0.52727999E-08  0.15966260E-07  0.79474830E-09
  0.12209184E-07 -0.16401495E-08  0.11774712E-07  0.55903790E-08 -0.15490210E-09
  0.56503678E-08 -0.22955891E-07  0.20022713E-07 -0.27598166E-07 -0.12284516E-07
 -0.72247600E-09 -0.50282070E-09 -0.19027465E-09 -0.48798865E-08 -0.11992998E-07
 -0.43479020E-06  0.99065667E-07 -0.11366408E-06 -0.46450270E-06  0.66885453E-06
  0.19787209E-07 -0.17804465E-06  0.11656869E-06  0.79983120E-08  0.25812505E-08
  0.14243857E-07  0.26933661E-07  0.64866303E-08 -0.31801822E-08 -0.11180262E-07
 -0.35196835E-08 -0.89332562E-08  0.71110886E-08 -0.21820733E-06  0.24472985E-06
  0.55575747E-06 -0.25655867E-07  0.43272067E-06 -0.82236044E-06 -0.35816768E-06
 -0.19562397E-06  0.10549747E-06 -0.85300033E-08  0.27554117E-07  0.11237472E-07
  0.31887818E-07  0.14179776E-08 -0.34335522E-07  0.35799475E-09  0.29730068E-07
  0.17518800E-07  0.74879182E-06  0.62689675E-06 -0.85164899E-06 -0.17217822E-07
  0.38832308E-06 -0.62865756E-07 -0.16519274E-06  0.79644567E-07 -0.55476408E-06
  0.50449289E-06 -0.73360742E-07  0.53336707E-06 -0.12488682E-05 -0.37290996E-06
  0.85919319E-06 -0.63678413E-06  0.12882380E-05  0.14056619E-05  0.10072810E-05
  0.51086397E-06  0.27121726E-06  0.45571010E-06  0.56257054E-06 -0.24934096E-06
  0.47832214E-06 -0.33355592E-06  0.10256758E-06  0.12003138E-07 -0.13197285E-07
 -0.34850979E-07  0.33956472E-08 -0.28513731E-08 -0.12101445E-07 -0.62819226E-08
 -0.15804008E-08  0.22338154E-07 -0.35423018E-07  0.15908791E-07  0.10449942E-07
  0.19346545E-07  0.44195428E-08  0.26478050E-08 -0.58659248E-08  0.96999658E-08
  0.33872060E-08  0.60039822E-08 -0.23094126E-07 -0.16212360E-07  0.97805929E-08
 -0.23613678E-08 -0.17185024E-07  0.92480120E-08 -0.55578116E-08 -0.18264622E-08

  0.31797217E-07  0.95976678E-08 -0.32495819E-08  0.90265399E-08  0.23640474E-07
  0.92587000E-08  0.12649147E-07  0.11778764E-07  0.31251114E-08  0.14273522E-06
 -0.38018912E-06 -0.40220607E-06 -0.10547498E-05  0.33979598E-06  0.30995404E-06
  0.60907950E-08 -0.71428782E-07  0.89450131E-08  0.48778554E-06 -0.82363111E-06
  0.10204363E-06  0.14095842E-05  0.44920926E-07 -0.19257591E-06  0.46455882E-06
  0.14393906E-06 -0.11059425E-06  0.32105943E-06  0.19515045E-06 -0.25126286E-07
 -0.34992897E-07 -0.48630813E-06 -0.75097378E-07 -0.16096291E-06  0.20655158E-07
 -0.28788606E-06 -0.13953243E-08  0.17501759E-07 -0.27631501E-08  0.31044323E-08
  0.21926489E-07  0.14302100E-07  0.37499343E-08 -0.42913068E-08 -0.56902466E-08
  0.43611828E-06  0.43859840E-06  0.46471954E-07 -0.42237631E-07  0.37834582E-07
 -0.18588556E-07 -0.22983604E-06 -0.26491721E-06  0.19309080E-06 -0.27319290E-06
 -0.14827141E-06 -0.28418660E-06  0.12105843E-06  0.38533759E-06 -0.14755232E-06
  0.71750549E-07  0.59853022E-07 -0.13727426E-07 -0.19515634E-07 -0.53171018E-08
 -0.24883178E-08  0.52926347E-06 -0.17257474E-06 -0.71942302E-07 -0.28047319E-07
  0.15731914E-07 -0.24366890E-08 -0.14288803E-09  0.29214480E-07 -0.98077794E-08
 -0.15171468E-07  0.19767463E-07  0.20018075E-07 -0.18482672E-07  0.17335570E-07
 -0.12421260E-08 -0.27129666E-07  0.39453507E-08  0.20896997E-07 -0.58555843E-08
  0.47857752E-07  0.27001630E-07  0.74403579E-08 -0.13580160E-08  0.50172369E-08
  0.12864411E-06  0.65106202E-07 -0.92553951E-07  0.40914706E-06 -0.30445911E-06
  0.84531266E-07  0.28890436E-06  0.22086361E-06 -0.39251544E-06  0.44462816E-07
 -0.32422837E-08 -0.23318111E-07 -0.13323341E-07  0.32543674E-07  0.20925664E-07
 -0.91676996E-08 -0.13914039E-07  0.24667432E-08  0.28124387E-06  0.21063271E-07
  0.35918243E-06 -0.34156757E-06  0.25307700E-06 -0.20512912E-06 -0.31747082E-06
 -0.71022612E-06 -0.76488032E-07 -0.61685520E-07 -0.17537168E-07  0.14019954E-07
 -0.30112140E-07  0.14741992E-07  0.44012958E-07  0.10847531E-07  0.35229992E-07
  0.10566029E-07 -0.68795756E-07 -0.19577937E-07 -0.31770605E-06 -0.67814903E-06
  0.24037126E-06  0.67175584E-06 -0.10819190E-05  0.80836856E-07 -0.18622629E-06
 -0.54124010E-06 -0.17516764E-06  0.10120463E-06 -0.21979865E-05 -0.28287026E-06
  0.49514747E-06 -0.10352447E-05  0.14363856E-06  0.25041256E-06  0.20515172E-06
  0.56081504E-08  0.13513729E-08 -0.84248619E-06  0.31437900E-06  0.23887614E-06
  0.45863854E-06  0.15552189E-06  0.33247761E-07 -0.22680412E-07  0.95732981E-08
 -0.16816291E-09 -0.26219854E-07  0.45492959E-07  0.16845106E-07 -0.24207364E-07
 -0.80131778E-09 -0.30689280E-08  0.37073975E-08 -0.14630564E-07  0.11319292E-07
 -0.27213115E-07  0.37123202E-07  0.30550811E-07  0.79937861E-08  0.68452312E-08
  0.49589233E-09  0.22498242E-07  0.54373830E-08  0.11309519E-08 -0.12331412E-09
  0.35303955E-07  0.29676491E-07 -0.23914064E-08  0.19934094E-08 -0.85413115E-08

 -0.13818493E-07 -0.18475625E-07  0.14812378E-07  0.15772999E-07 -0.38177862E-07
  0.22084846E-07  0.10787196E-07  0.22916464E-08  0.12139306E-07  0.67460204E-07
  0.14303236E-05 -0.36118774E-06  0.51528832E-07 -0.16212453E-06  0.24564370E-06
  0.95348613E-06 -0.18348720E-06  0.15075041E-06 -0.33537658E-06  0.12670128E-05
 -0.14495878E-06  0.28035624E-07  0.12631128E-05 -0.40510849E-06  0.22598934E-06
  0.56251526E-06 -0.75203485E-06  0.33074401E-06  0.26106423E-06  0.70803413E-06
  0.21928618E-07  0.90876140E-06  0.20542928E-06 -0.17206779E-07  0.16017125E-06
  0.12382791E-05  0.11759075E-07  0.41503955E-07 -0.78887120E-08  0.21823625E-07
 -0.71231633E-07  0.14427265E-07  0.13241248E-08  0.81452886E-08  0.21955046E-07
 -0.19194062E-06 -0.40069680E-06  0.45782809E-06 -0.16328323E-06  0.62832440E-06
  0.11790918E-06 -0.56336932E-06  0.13815362E-06 -0.33198964E-06  0.17353641E-06
  0.94837413E-06  0.30965115E-06  0.58249959E-07 -0.73874659E-06  0.14478823E-06
 -0.15233626E-07  0.11036536E-06  0.17988650E-06 -0.70515617E-08  0.19981860E-07
 -0.93328330E-08 -0.17257474E-06  0.91737766E-06 -0.11303942E-06 -0.17191438E-07
 -0.43806164E-08 -0.17080537E-07  0.95489947E-08 -0.18299971E-07 -0.14055590E-07
  0.23902201E-07 -0.25327169E-07  0.20975023E-07  0.17157102E-07 -0.11098047E-07
 -0.46590264E-08  0.13240930E-07 -0.50789809E-08 -0.22759598E-07  0.31700220E-07
 -0.33801660E-07  0.35859759E-08 -0.21665235E-07  0.23426483E-08 -0.24153055E-07
 -0.29944765E-06 -0.16560656E-06  0.13160764E-06 -0.21791414E-06  0.10388909E-05
 -0.51874985E-06  0.53791166E-06 -0.12805510E-06  0.33934287E-06 -0.15457576E-07
  0.78695363E-08  0.12846857E-07  0.15733658E-07 -0.54631831E-07  0.13836202E-07
 -0.30684141E-07 -0.17374378E-08 -0.15271058E-07 -0.47506937E-06 -0.51274486E-06
  0.20644841E-06  0.13488669E-07 -0.22162668E-07  0.65745056E-07  0.49541375E-06
 -0.59566650E-08 -0.12852153E-07 -0.42185670E-08  0.28322223E-07 -0.11233925E-07
 -0.18283713E-10 -0.15334900E-07 -0.31159804E-09 -0.28041062E-07 -0.12886788E-07
 -0.33297769E-07  0.69178966E-07 -0.11621903E-05  0.28935298E-06 -0.11581674E-06
  0.24174066E-06 -0.50866078E-06 -0.47254345E-06  0.52150423E-06  0.12596764E-06
 -0.18488097E-06 -0.97627700E-06 -0.31543316E-06  0.10372766E-05  0.16526420E-05
 -0.91186037E-06  0.38761441E-06  0.14599722E-06  0.81203994E-07  0.25637696E-07
 -0.34684240E-06  0.55071098E-06 -0.56019144E-06 -0.20976502E-06  0.46154110E-06
 -0.37282164E-06  0.44617368E-06 -0.40581982E-07 -0.18343147E-07  0.23776537E-07
  0.19710986E-07  0.28527495E-07 -0.68973699E-07  0.19199288E-07 -0.26956416E-07
 -0.37691383E-08 -0.96980705E-08  0.27102634E-08  0.41644895E-07 -0.11142868E-07
  0.43552935E-07 -0.37362628E-07  0.16184117E-07 -0.51984400E-07  0.55138961E-08
 -0.19183086E-07 -0.51996005E-08  0.38850412E-07  0.50536121E-08  0.33930287E-07
 -0.61890415E-08  0.10872315E-07 -0.11685311E-07  0.27815138E-08  0.40646158E-08

  0.64885514E-08 -0.11396956E-07 -0.97670840E-08 -0.54535390E-09  0.20359917E-07
  0.15953067E-07  0.14102771E-08 -0.70516920E-08 -0.61166251E-08  0.19347914E-06
 -0.34983500E-06  0.44615631E-06  0.74172708E-07  0.29127298E-06 -0.35689635E-06
 -0.21330812E-06  0.25827210E-06 -0.22614184E-06 -0.29589123E-06 -0.33735500E-06
 -0.44923745E-06 -0.18024047E-06 -0.31456666E-06  0.39724003E-06 -0.20827285E-06
 -0.39395086E-06 -0.74025744E-06 -0.45377067E-06 -0.18077126E-06  0.24879798E-06
  0.43089878E-06 -0.31828515E-07 -0.84501791E-07  0.14527856E-06 -0.18851072E-06
  0.18325853E-06 -0.13124993E-08 -0.28206675E-07 -0.34923719E-09  0.17972437E-07
  0.66288024E-08  0.94289687E-08 -0.37534141E-08 -0.36580255E-08  0.63079020E-09
 -0.11208310E-07  0.22290494E-06 -0.23094467E-06 -0.33171134E-07 -0.25571016E-06
  0.25739402E-06  0.24561510E-06 -0.32423826E-06  0.87854908E-08 -0.15124973E-06
 -0.15335863E-06  0.11094230E-06 -0.95581477E-07 -0.33750914E-07  0.24106293E-06
  0.12178610E-08  0.80593625E-07  0.37573589E-06  0.16523182E-09  0.13594030E-07
  0.50199523E-07 -0.71942302E-07 -0.11303942E-06  0.26676544E-06  0.26586848E-09
  0.61717044E-08  0.32832192E-08  0.12988008E-08  0.90513063E-08 -0.96307589E-08
  0.19431239E-07  0.30132565E-07 -0.57269599E-08  0.22842864E-08  0.17071809E-08
  0.36492368E-08  0.16660368E-07 -0.16665828E-07 -0.10962352E-07  0.28661097E-07
  0.67887177E-08 -0.41490222E-08 -0.15692987E-09 -0.35061309E-08 -0.10220633E-07
 -0.17168909E-06 -0.21717024E-06  0.21588999E-06  0.10316384E-06 -0.25724640E-07
  0.40548924E-07 -0.21213002E-06  0.15900097E-06 -0.57005341E-07  0.27408334E-08
  0.11019657E-07  0.82241558E-08  0.28798006E-07  0.10401358E-07 -0.10285738E-07
  0.12047688E-07  0.55345951E-08 -0.52566562E-08  0.28364066E-06 -0.24865968E-08
  0.43235832E-07 -0.47815997E-06  0.33967037E-06  0.28391772E-06 -0.41321433E-06
 -0.20022415E-07 -0.55471994E-08  0.17289084E-09 -0.23761257E-08 -0.17848757E-07
  0.63242076E-07 -0.23763199E-08 -0.14832575E-07  0.15091857E-07 -0.62617582E-10
  0.20073503E-07  0.18616304E-06 -0.11735287E-07 -0.54677696E-06  0.28175686E-06
  0.36980716E-06  0.39375855E-07 -0.15379650E-06 -0.69194475E-06 -0.21741229E-07
 -0.46834229E-07  0.33024508E-06 -0.49014944E-07  0.23103102E-06 -0.63093814E-06
  0.88153613E-06 -0.13891934E-06 -0.36864016E-06  0.63791000E-06  0.10675991E-06
  0.26495076E-06 -0.24626483E-06  0.22438822E-06  0.48881976E-06 -0.71769332E-06
  0.23714352E-06 -0.31646676E-06 -0.19453808E-06  0.33477682E-08 -0.16514619E-07
 -0.12366811E-07  0.17659419E-07  0.18771675E-07  0.43633186E-08  0.10443039E-08
 -0.20197047E-08  0.14772745E-07 -0.17700273E-07  0.49552937E-08 -0.12080632E-07
  0.27001625E-07  0.36124377E-07  0.49557797E-09 -0.21398447E-08 -0.87742354E-09
 -0.66856281E-08 -0.79807030E-08 -0.57167768E-08 -0.24803461E-07  0.24461960E-07
  0.70807150E-08  0.57849708E-08  0.38205699E-08 -0.53009374E-08  0.10789392E-07

 -0.15027029E-07 -0.13326521E-07  0.55664907E-08  0.56666734E-09  0.16131682E-07
  0.27152563E-08 -0.12224625E-07  0.57094506E-08  0.50483258E-08 -0.13614705E-06
 -0.13924728E-06  0.87729264E-07 -0.25006478E-06 -0.77867464E-06  0.33900303E-06
 -0.65896975E-06 -0.12172247E-06  0.15022740E-07 -0.87649243E-09  0.78188351E-06
  0.59955815E-07 -0.13574263E-07 -0.82443816E-06  0.20779244E-06  0.46164858E-06
  0.18185185E-06  0.39691424E-07  0.72226683E-07 -0.20600062E-06 -0.16974312E-06
 -0.38563383E-06  0.25789778E-06 -0.50443865E-07 -0.10540570E-06  0.25307009E-06
 -0.14655439E-06 -0.43248270E-07 -0.24085988E-07 -0.40556447E-08  0.15125940E-07
  0.19732738E-07  0.50151780E-08  0.25967024E-07  0.13466583E-07 -0.70095816E-08
 -0.36404428E-06 -0.42871590E-06  0.49914441E-06 -0.86464033E-07 -0.35863799E-06
  0.23453371E-06  0.53823617E-06  0.17672863E-06  0.92792594E-07  0.18780378E-06
 -0.85151384E-06 -0.11710465E-06 -0.36408624E-06 -0.27688206E-06  0.12315915E-06
 -0.18294341E-06  0.45922173E-08  0.29148795E-06 -0.72150521E-08  0.16695483E-07
  0.37052539E-08 -0.28047319E-07 -0.17191438E-07  0.26586848E-09  0.50413909E-06
 -0.10291416E-07  0.11490838E-07 -0.71150881E-09 -0.29660034E-07  0.51418346E-08
  0.20691097E-08  0.10148171E-07 -0.66559351E-08 -0.17920657E-07 -0.28989552E-08
 -0.94668796E-08 -0.10240208E-07 -0.15737627E-07  0.12596620E-08 -0.10773822E-07
 -0.58521968E-07  0.16003505E-07  0.11176920E-07  0.42364521E-08  0.12405811E-07
 -0.56654850E-06  0.90704154E-06 -0.19800128E-06 -0.37784585E-06  0.33248337E-06
  0.17851311E-06 -0.14832904E-06 -0.29836468E-06  0.57696490E-06 -0.60422404E-07
  0.60181613E-08  0.29350603E-08 -0.62824067E-08  0.17993422E-07 -0.55917047E-08
  0.33487099E-08 -0.82137020E-08 -0.14975259E-08 -0.17180331E-06 -0.61574338E-07
 -0.13000174E-06  0.24361583E-06 -0.55957553E-06 -0.23553371E-06 -0.19625178E-06
  0.39053203E-07 -0.16593393E-06  0.59761795E-07  0.43172961E-07  0.20009312E-07
 -0.16372700E-07 -0.82864678E-08  0.43476926E-08  0.61189195E-08 -0.41791085E-07
 -0.10028339E-07  0.35026044E-06  0.19531138E-06  0.12070852E-08  0.95647012E-06
 -0.42771817E-07 -0.36829513E-06 -0.12766720E-06 -0.31522459E-06 -0.46568824E-06
  0.11822984E-05  0.58817584E-06 -0.21829291E-06  0.13692076E-05 -0.89683241E-06
 -0.14492724E-06 -0.12408197E-05  0.48830367E-08 -0.78533157E-07  0.14173598E-06
 -0.25861822E-06 -0.21607285E-06 -0.20522929E-06  0.51982360E-06 -0.18766532E-06
 -0.70569078E-06  0.25513984E-06 -0.44881096E-06  0.17246194E-07 -0.50967968E-07
 -0.48697224E-08  0.21454470E-08  0.39435098E-08  0.21624342E-08 -0.76572449E-08
 -0.23622676E-08  0.42293792E-08  0.19229673E-07  0.11069848E-08  0.67844768E-08
  0.71305388E-08  0.54731320E-08  0.20551252E-08 -0.93648837E-08 -0.72461755E-08
  0.15806290E-07  0.29534884E-08 -0.18475029E-08  0.89598142E-08  0.13289266E-07
  0.26702942E-07 -0.35654641E-08  0.14616745E-08  0.87502139E-08 -0.13645101E-07

  0.56503462E-08  0.42733315E-08 -0.11140502E-07 -0.14928268E-07  0.42234093E-08
 -0.22109299E-08 -0.15600741E-08 -0.11772416E-07  0.63927086E-08 -0.19454507E-06
 -0.10456077E-06  0.92173953E-07 -0.46968643E-06  0.51842897E-06 -0.28401996E-06
  0.62478885E-07  0.19078769E-06 -0.22453424E-06 -0.23157718E-06 -0.36136470E-06
 -0.72564705E-07 -0.12772105E-06 -0.22472102E-06 -0.33341313E-07 -0.40203917E-06
 -0.12945045E-06 -0.19109535E-06 -0.13713280E-06 -0.11063842E-06  0.33650603E-07
  0.94728016E-07 -0.61855776E-07 -0.34284124E-06  0.33341664E-06  0.19467541E-06
 -0.20608545E-06  0.96902614E-08  0.57085162E-08 -0.14545971E-07 -0.76039546E-09
 -0.74238295E-08  0.16131740E-07 -0.96787045E-09  0.16306871E-08 -0.21181458E-08
 -0.85020371E-08 -0.30244535E-07  0.22566899E-06  0.99685238E-07  0.85020318E-07
 -0.18505195E-06 -0.30515947E-07  0.13482357E-06  0.73426145E-07  0.46436623E-06
  0.12387820E-06 -0.15015574E-06  0.36460105E-06  0.17807013E-06 -0.63342719E-07
 -0.12136270E-06 -0.89918943E-07  0.44125153E-07 -0.14134150E-07  0.10905581E-08
  0.62035754E-08  0.15731914E-07 -0.43806164E-08  0.61717044E-08 -0.10291416E-07
  0.21599435E-06 -0.43307612E-08  0.99965398E-09  0.12632478E-07 -0.10853874E-07
  0.11705206E-07 -0.15118672E-08  0.21314261E-08 -0.30749183E-08 -0.10668652E-07
 -0.14061297E-08 -0.12598728E-07 -0.11507422E-07  0.34269614E-08  0.17559928E-07
 -0.34436530E-08  0.16199872E-08  0.20333476E-08  0.20618566E-07  0.78329768E-09
 -0.41803816E-07 -0.11203952E-06 -0.89016237E-07 -0.15885955E-06  0.37663536E-06
  0.16315729E-06  0.16753335E-06  0.52232498E-07  0.34490329E-06  0.63825305E-08
  0.57025986E-09 -0.14270455E-07 -0.52986406E-08  0.81364303E-08 -0.32028120E-08
 -0.11706408E-08 -0.34719150E-08 -0.35342762E-08 -0.20369061E-07 -0.43450891E-07
  0.24490954E-06  0.24372467E-06 -0.23406259E-06  0.66282779E-07 -0.92865577E-07
 -0.25434935E-06 -0.14803943E-07 -0.24828395E-07 -0.14950159E-07  0.92550254E-08
  0.28877965E-07 -0.51952240E-08  0.21665235E-08  0.41711543E-08  0.22448300E-07
  0.26033674E-07 -0.42594494E-06 -0.15932111E-06 -0.39791081E-06 -0.65985298E-06
  0.41728658E-06  0.33071798E-06 -0.45548945E-06 -0.19370162E-06  0.93594884E-07
 -0.16981698E-06 -0.20573786E-06 -0.36259338E-07 -0.11467084E-05 -0.30243685E-06
  0.55202994E-06 -0.56612090E-06 -0.20455580E-06 -0.43608203E-07  0.36708236E-06
  0.19352438E-06 -0.22604144E-07 -0.79118747E-07 -0.74884124E-07  0.56173794E-07
  0.70591831E-07  0.50093822E-06 -0.33220362E-08 -0.60935676E-08 -0.84116340E-08
  0.13961920E-07 -0.11179496E-08  0.77429744E-08  0.74111660E-08 -0.80673776E-08
  0.21468091E-09 -0.52967102E-08  0.94811268E-08 -0.55542306E-08  0.11908292E-08
  0.47714345E-08  0.95506934E-08 -0.53861569E-08 -0.63056702E-08  0.62250902E-08
 -0.38202807E-09  0.66620324E-08 -0.76495184E-08  0.32556840E-08  0.50491000E-09
  0.11056019E-07  0.83363593E-08 -0.99748901E-08 -0.14321618E-08 -0.48508924E-08

 -0.27475140E-08  0.39621092E-07 -0.19244772E-07  0.49991951E-08  0.19402248E-08
 -0.22945307E-09 -0.17932514E-08 -0.41655792E-08  0.90332813E-08  0.70513590E-07
  0.21377366E-07  0.19056981E-06 -0.17438853E-06 -0.40528261E-06  0.71489589E-07
 -0.59879215E-06  0.34452616E-07  0.59787204E-06  0.90836066E-08  0.38488147E-06
  0.47349475E-07 -0.22034550E-07 -0.23774674E-06 -0.13630807E-06 -0.48664552E-07
 -0.60701276E-07  0.56176854E-06  0.12259270E-06 -0.65933863E-07 -0.19092206E-06
 -0.12000339E-06 -0.74106229E-06  0.15198099E-06  0.20033429E-06 -0.12952765E-06
 -0.92514524E-06 -0.22187064E-07 -0.48532567E-07 -0.80941919E-08 -0.11653480E-07
  0.11215172E-07 -0.10980787E-08 -0.60197965E-08  0.53054305E-09 -0.20031652E-07
 -0.11041558E-06 -0.85319328E-07 -0.22111232E-09  0.11546945E-06  0.43092292E-06
 -0.34150293E-06  0.12310784E-06 -0.43424957E-08 -0.34496281E-06  0.62192943E-07
  0.33769628E-06 -0.30849873E-06 -0.25628366E-06  0.10428079E-06  0.24811829E-06
 -0.34980099E-06 -0.13320189E-08  0.26533905E-06 -0.71134155E-08 -0.54445574E-07
 -0.15806464E-07 -0.24366890E-08 -0.17080537E-07  0.32832192E-08  0.11490838E-07
 -0.43307612E-08  0.30745103E-06  0.49599076E-08  0.15659165E-07  0.67094224E-08
  0.31111285E-08 -0.87848083E-09 -0.73625109E-08 -0.20948515E-07 -0.30359134E-08
 -0.15162830E-07 -0.41481210E-08 -0.28200709E-07 -0.76031087E-08 -0.60007941E-08
 -0.81817613E-09  0.70747133E-08  0.30976653E-07 -0.96281973E-08  0.29518523E-07
  0.13748790E-07  0.46691490E-06  0.21055546E-06 -0.87722607E-09 -0.12251668E-06
  0.65918257E-07  0.28461873E-09 -0.16949162E-06  0.39665537E-06  0.10100748E-07
 -0.16836338E-07 -0.14883628E-07  0.84517210E-08 -0.35860515E-08 -0.16132009E-07
  0.35160585E-08  0.71134763E-08  0.16029992E-07 -0.10629913E-06  0.71558523E-06
 -0.10453451E-06 -0.15615905E-06  0.20860686E-06  0.45071150E-06  0.26536419E-07
  0.23871890E-06  0.21239196E-07 -0.17464389E-07 -0.15160647E-07  0.29134264E-07
  0.65438135E-08 -0.15507267E-07  0.10859104E-07  0.99266009E-08 -0.64121347E-08
  0.77035861E-08 -0.28911101E-06 -0.86465715E-07  0.39254391E-06 -0.14166220E-06
 -0.33730117E-06  0.27816811E-06 -0.14043975E-06 -0.15635538E-06  0.21554130E-06
 -0.41835147E-07  0.10717516E-07 -0.74826090E-07  0.12276891E-05 -0.60776498E-06
  0.31809094E-06  0.67058207E-06 -0.73933453E-06 -0.56685900E-06  0.72763071E-07
  0.21233599E-06  0.36144707E-07  0.39474539E-06 -0.37191883E-06  0.13962873E-06
 -0.89908461E-08 -0.34012188E-06 -0.49844552E-06  0.10807351E-07 -0.34753324E-08
  0.47004728E-08  0.17437265E-08  0.45043460E-08 -0.75406865E-08  0.61501458E-08
  0.61927142E-08 -0.14979000E-08  0.38969572E-08 -0.15716981E-07 -0.43769842E-08
 -0.26566421E-08  0.30152211E-08  0.30383389E-09 -0.21377116E-08 -0.66798339E-08
  0.15026114E-07 -0.31087827E-08  0.84509593E-08 -0.12196856E-07 -0.42707275E-08
 -0.62401684E-08 -0.84280208E-08  0.89904736E-08 -0.58900569E-08  0.11339425E-07

  0.18525180E-07 -0.29122871E-08  0.23808903E-07 -0.38466003E-07 -0.22443868E-08
  0.86888954E-08 -0.12993920E-08  0.37804260E-08 -0.86958741E-09  0.12654745E-06
  0.70455291E-06 -0.25186284E-06  0.37286820E-06 -0.52456862E-07 -0.23262671E-06
  0.30120149E-06 -0.28209242E-06 -0.83447525E-08  0.35883979E-06  0.40937205E-06
  0.38235695E-06  0.75417709E-06 -0.11868379E-05  0.19732798E-06 -0.50423648E-06
 -0.34054713E-07 -0.11181392E-06  0.25133689E-06  0.43442200E-07 -0.24580322E-06
 -0.92257550E-06  0.77697450E-06  0.28320379E-06 -0.28599922E-06 -0.54183096E-06
  0.35257719E-06 -0.16424061E-07 -0.36783949E-08 -0.95306870E-08  0.13008062E-07
  0.87509433E-08  0.10280296E-07 -0.10934938E-07 -0.16698551E-07 -0.14247976E-07
 -0.11841487E-06 -0.62324123E-06  0.63209730E-06 -0.23738732E-06  0.85896319E-06
 -0.44733486E-06  0.20563849E-06 -0.73986697E-07  0.67418774E-07 -0.68322802E-07
  0.91953375E-07 -0.97929034E-07 -0.34086647E-07 -0.16043434E-06 -0.20140905E-06
  0.12656636E-06  0.16247530E-06  0.26687071E-06 -0.28361713E-07  0.14532516E-07
  0.52727999E-08 -0.14288803E-09  0.95489947E-08  0.12988008E-08 -0.71150881E-09
  0.99965398E-09  0.49599076E-08  0.46549315E-06  0.16895521E-07 -0.65131704E-07
  0.73211813E-08  0.62885401E-08  0.34934279E-08 -0.41248656E-08 -0.12502983E-07
  0.19565999E-07 -0.65723031E-08  0.21982187E-07 -0.13595584E-07  0.17006801E-07
  0.36393423E-08  0.13330243E-08  0.35891126E-08 -0.41782483E-08 -0.55712543E-08
 -0.21831339E-06  0.26326831E-06 -0.48975041E-06  0.89052894E-06 -0.73020749E-09
  0.33149965E-06  0.58120773E-06 -0.62147955E-06 -0.17722579E-06 -0.29518278E-08
  0.51461409E-08  0.45336350E-08  0.13322282E-07 -0.21681271E-08 -0.39058673E-08
  0.21652186E-07 -0.14725097E-07 -0.50372817E-08  0.61779689E-06 -0.98749571E-07
 -0.57429919E-07  0.96501518E-07 -0.32554793E-06 -0.33784395E-06 -0.27700756E-06
 -0.88442143E-06 -0.17106346E-06 -0.40031865E-07  0.18582615E-07 -0.12278988E-07
 -0.42040322E-07  0.53340387E-07 -0.12475037E-07  0.19739994E-07  0.14984378E-07
  0.88772086E-09 -0.14395194E-06 -0.18006273E-06  0.58626097E-06  0.11016417E-05
  0.23610334E-06 -0.73341818E-06  0.13011859E-05 -0.14825710E-06  0.59939905E-06
  0.47463443E-06  0.42941097E-06  0.37471868E-06  0.20890709E-05  0.90638646E-06
 -0.11691651E-05  0.50239738E-06 -0.65949476E-06  0.12003928E-07 -0.54533237E-06
 -0.71755895E-06  0.16566364E-06 -0.16312187E-05  0.40117612E-06  0.52016445E-06
 -0.14182489E-05  0.56891210E-06 -0.20645783E-06  0.32770245E-07 -0.14377195E-09
  0.70463537E-08 -0.11504062E-07  0.13563319E-07 -0.31897575E-08  0.38808183E-08
 -0.34296784E-08  0.41595348E-08 -0.29822294E-07  0.26944141E-07 -0.16436630E-07
  0.11894218E-07 -0.13205820E-07 -0.48276276E-08 -0.10052252E-07  0.27425580E-07
 -0.14466403E-07 -0.17897742E-07  0.23308683E-07 -0.14046339E-07  0.22955692E-07
 -0.95468510E-08  0.58449076E-08  0.57040583E-09 -0.83424709E-08  0.31523580E-08

  0.17256325E-07  0.32090392E-07  0.13937036E-07  0.22311615E-08  0.12917736E-07
 -0.34137815E-08 -0.14379948E-07 -0.10138618E-07 -0.84845086E-08 -0.24008717E-06
  0.89995061E-07 -0.25848440E-06  0.54211175E-06 -0.82663906E-06 -0.72959815E-07
  0.85736170E-06 -0.10052925E-06  0.73734800E-06 -0.32258511E-06  0.58138977E-06
  0.49129020E-06  0.11487529E-05 -0.15164619E-05  0.15655096E-06 -0.33945621E-07
 -0.49943850E-06  0.42412922E-06 -0.68649425E-06 -0.11596556E-05  0.81115926E-06
  0.57596456E-06 -0.65252025E-06 -0.41989435E-06 -0.67807017E-07 -0.26159367E-06
 -0.42050923E-06 -0.18323211E-07 -0.24132483E-07 -0.26851124E-07 -0.17628685E-07
 -0.32685388E-07  0.13928496E-07 -0.13537541E-07  0.93228047E-08  0.77930961E-08
  0.15059075E-06  0.96530966E-06 -0.36096202E-06 -0.37720900E-06  0.42388856E-06
 -0.25968763E-06  0.65108085E-06 -0.14894171E-06  0.50893994E-06  0.16721737E-06
 -0.87348308E-06  0.24402834E-06  0.87190332E-06  0.85895503E-07 -0.52762268E-06
  0.38322866E-06  0.94576202E-07  0.43535823E-06 -0.11972936E-07 -0.51562967E-07
  0.15966260E-07  0.29214480E-07 -0.18299971E-07  0.90513063E-08 -0.29660034E-07
  0.12632478E-07  0.15659165E-07  0.16895521E-07  0.73705449E-06 -0.23092197E-07
  0.68829280E-08  0.23610377E-07  0.10219775E-07 -0.21969403E-07  0.18057261E-07
 -0.17802102E-07 -0.44470566E-07  0.11102266E-08 -0.63559380E-08  0.77890019E-08
  0.16850260E-07 -0.12181151E-07 -0.10798490E-07 -0.78129384E-08  0.16723100E-07
 -0.14476622E-06 -0.56979872E-06  0.85597258E-06  0.22584187E-06 -0.88175702E-06
 -0.94102339E-07  0.15706755E-06  0.13622835E-06 -0.71673167E-06  0.20751588E-07
  0.11936734E-07  0.46211443E-08 -0.26165784E-07  0.11949010E-07  0.82564152E-08
 -0.33589419E-07  0.53290453E-08 -0.82015895E-08  0.84394592E-07 -0.13542316E-06
 -0.10372364E-06  0.23118336E-07  0.60941325E-06  0.12300388E-06 -0.89673815E-06
 -0.81560720E-07 -0.25402841E-06  0.54146665E-07  0.50927856E-07 -0.18367103E-07
 -0.39271674E-08 -0.45075412E-07  0.18824889E-07 -0.41902996E-07  0.21914105E-07
 -0.11373137E-07  0.61906092E-06  0.62126346E-06 -0.74222338E-06  0.14605672E-06
  0.54944641E-06  0.43013663E-08 -0.10881562E-05  0.96882126E-06 -0.14971719E-05
 -0.93737457E-06  0.22298036E-05  0.73802266E-06 -0.12393696E-05 -0.48174289E-06
  0.33422969E-06  0.75253441E-06  0.23123974E-06  0.50479701E-06  0.53437428E-06
  0.73533129E-06 -0.15134771E-06 -0.14906997E-05 -0.11471844E-05  0.95229129E-07
 -0.12658775E-05  0.43299395E-06  0.16344358E-06 -0.37704957E-08 -0.48095684E-08
 -0.81572067E-08 -0.55366289E-08  0.21794216E-07  0.10655100E-07 -0.12376826E-07
  0.94455747E-08  0.17702226E-08 -0.13050998E-07  0.22016081E-07 -0.18018963E-07
  0.79337128E-08  0.41380070E-08  0.14887747E-07 -0.17981213E-07  0.19811532E-07
 -0.21797952E-07 -0.20268389E-07 -0.12229385E-07 -0.13289568E-07  0.21941895E-07
 -0.38841593E-07 -0.89990823E-09 -0.47497159E-08  0.41820958E-10  0.65237848E-08

 -0.15430542E-07 -0.59154471E-09 -0.21486505E-08  0.30667746E-07 -0.12840103E-07
 -0.52060697E-08  0.12475646E-07 -0.33283685E-08 -0.15950092E-07  0.69866030E-06
  0.44170279E-06  0.97781634E-06 -0.21380866E-06 -0.23704418E-06 -0.17815730E-06
 -0.95096525E-07 -0.33712216E-06  0.59114071E-06 -0.20700359E-06  0.11618481E-05
 -0.11741354E-06 -0.11153033E-05  0.32602871E-06 -0.78798422E-07 -0.20180984E-06
  0.37373009E-06  0.11820581E-05 -0.19473745E-07 -0.46153069E-06 -0.40535182E-06
  0.63165295E-06  0.34371384E-06 -0.63547325E-06  0.21300423E-06  0.33645581E-06
  0.45874800E-06  0.66820833E-08 -0.57771364E-08 -0.11648683E-07 -0.16468806E-07
  0.62659699E-08 -0.26129219E-07 -0.91570332E-08 -0.82191301E-08  0.24206947E-08
 -0.75257878E-06 -0.33587536E-06 -0.38560383E-06  0.20697037E-06 -0.41202716E-07
  0.62321174E-07 -0.28035100E-07  0.39685588E-06  0.25170144E-06  0.11956028E-06
 -0.21490891E-06  0.43342749E-06 -0.60492514E-06  0.13670781E-06  0.65762074E-06
  0.61491503E-06 -0.45289774E-06  0.43393327E-07 -0.13237529E-07 -0.22920815E-07
  0.79474830E-09 -0.98077794E-08 -0.14055590E-07 -0.96307589E-08  0.51418346E-08
 -0.10853874E-07  0.67094224E-08 -0.65131704E-07 -0.23092197E-07  0.36995810E-06
 -0.62762069E-08 -0.74454592E-09  0.11609060E-07 -0.67197012E-09 -0.38132932E-08
 -0.20750384E-07 -0.10988243E-07 -0.87211445E-08  0.16708060E-07 -0.10324782E-07
 -0.23676435E-08  0.85814110E-08  0.41078185E-08  0.18508879E-07  0.48825024E-08
 -0.33196955E-06 -0.43139581E-07 -0.57853885E-06  0.27857564E-06 -0.11801274E-05
  0.13480399E-06 -0.60411083E-06 -0.29929633E-06 -0.17239346E-06  0.15777614E-08
 -0.83203760E-08  0.90999219E-08 -0.12564032E-07 -0.20005699E-07  0.85888477E-08
  0.25180144E-08  0.28925816E-08  0.13425010E-08 -0.24964770E-06  0.16694709E-06
 -0.28340463E-06  0.27161689E-06  0.10822334E-06  0.35675055E-06  0.21205527E-06
  0.31236028E-06  0.12836845E-06  0.20685632E-07  0.19738331E-07  0.74873086E-08
 -0.34685469E-07  0.27494992E-07  0.41411903E-09 -0.20103569E-08  0.37565726E-07
 -0.40777764E-08  0.69053697E-06  0.73724746E-06  0.11368299E-05 -0.13662986E-06
 -0.36150142E-06  0.65829009E-06  0.74427101E-06  0.91816172E-06 -0.11346856E-06
  0.48796584E-06  0.11702317E-06 -0.83576295E-06 -0.19806502E-06  0.72474163E-06
 -0.19626148E-05 -0.21681538E-07  0.60001805E-06 -0.15944331E-05  0.33247605E-06
  0.85903184E-07 -0.11204657E-06 -0.80833779E-06 -0.93961412E-07 -0.12086304E-06
 -0.17388229E-06 -0.14547871E-05 -0.70190676E-06  0.78758890E-08  0.18570874E-07
 -0.61619514E-08 -0.96437724E-08 -0.32395126E-08  0.10317272E-08 -0.30376352E-09
 -0.13710627E-07  0.12929677E-07  0.62260612E-08 -0.24349279E-07  0.13347529E-07
 -0.14528427E-07  0.59385741E-09 -0.14468271E-07 -0.31587925E-08 -0.14698353E-07
  0.19390007E-07  0.12044337E-07 -0.18510895E-07  0.33173362E-08 -0.52531638E-08
  0.14818672E-07 -0.31702257E-07  0.58777812E-08 -0.16018508E-07  0.43744651E-08

  0.65178331E-08 -0.73068869E-08 -0.12938413E-07  0.31751338E-07  0.28255900E-07
  0.20687850E-07  0.38618285E-08 -0.45608411E-09  0.79207623E-08  0.43903755E-06
 -0.33788143E-09  0.28151012E-08 -0.81950169E-07  0.19388236E-06  0.53842870E-07
 -0.18693593E-06 -0.13276743E-06 -0.25474526E-06  0.24669291E-06 -0.84399112E-07
 -0.78710083E-06 -0.33034610E-06  0.14823318E-06  0.10820994E-06 -0.12952694E-06
  0.37788624E-06 -0.46845521E-06 -0.27429711E-06  0.27311340E-06  0.45915751E-06
 -0.18011405E-06 -0.16527683E-06  0.39698460E-06  0.28352472E-06 -0.19524527E-06
 -0.35996613E-07 -0.16883150E-07 -0.77252478E-08  0.64577577E-08  0.58703974E-08
  0.36496952E-07  0.96405614E-08  0.11091157E-07 -0.55767804E-08  0.24920973E-08
 -0.24156261E-06  0.69455559E-06  0.23371396E-07 -0.24767779E-06 -0.56610675E-06
 -0.29188698E-07  0.25163389E-06 -0.30884119E-06 -0.46089392E-07 -0.67132257E-06
  0.16317421E-06 -0.10922971E-06 -0.55218296E-06  0.15065935E-06  0.47711988E-06
  0.10338422E-06  0.13652971E-06  0.24506065E-06  0.79814377E-08 -0.96674188E-08
  0.12209184E-07 -0.15171468E-07  0.23902201E-07  0.19431239E-07  0.20691097E-08
  0.11705206E-07  0.31111285E-08  0.73211813E-08  0.68829280E-08 -0.62762069E-08
  0.39577204E-06 -0.10654061E-06 -0.54690801E-07  0.23144858E-07 -0.44329358E-07
  0.32407084E-08  0.13796427E-07 -0.77902211E-08  0.43444247E-08 -0.26289067E-07
  0.32798903E-07  0.35445344E-07 -0.46726545E-08  0.86156793E-08 -0.51364377E-08
 -0.14237898E-06 -0.73700600E-07  0.13486875E-06  0.17940712E-06  0.10636425E-06
 -0.76695653E-07  0.49887053E-07 -0.60933872E-06  0.78472878E-08  0.14404739E-07
 -0.10929043E-07  0.10688552E-07 -0.11778880E-07  0.27587484E-07  0.31454898E-07
 -0.22586986E-07 -0.16884111E-08 -0.93458726E-08 -0.74798904E-06 -0.22092283E-07
  0.10580972E-06 -0.38157104E-06 -0.41883045E-07  0.23175368E-06 -0.55147498E-07
  0.99103740E-07  0.13574450E-06  0.25769986E-07  0.58448800E-08  0.15431031E-07
  0.56412414E-07  0.56821723E-07  0.12297774E-07  0.56975718E-07 -0.12251542E-07
 -0.66915590E-08 -0.12445871E-08  0.63059567E-06  0.12768518E-06 -0.19378906E-07
  0.84811710E-06 -0.37937180E-06  0.66873234E-06  0.21402355E-06 -0.35320128E-06
  0.11648591E-05  0.16671982E-06  0.80464953E-07  0.79384463E-06  0.47457164E-06
 -0.15991522E-06  0.49565495E-06  0.55656852E-06  0.34877058E-06 -0.49465454E-06
  0.18155085E-06  0.98362334E-07  0.77235454E-06  0.72962243E-07  0.26996806E-07
  0.35091878E-06 -0.98167299E-07  0.16825928E-06  0.11499992E-07 -0.11175403E-07
  0.18762540E-07  0.17746503E-08  0.21819843E-07  0.23217049E-07 -0.41706635E-08
  0.65081836E-08  0.75723720E-08 -0.33197606E-07  0.10998556E-07 -0.41105312E-08
  0.36146280E-07  0.25732605E-07  0.33398410E-07 -0.13309324E-07  0.14586730E-07
 -0.35291083E-08  0.96119001E-08 -0.27368581E-08 -0.90043601E-08  0.30393387E-07
  0.19305535E-07  0.30615493E-07 -0.11032897E-07 -0.18433844E-08  0.33075158E-08

  0.22457973E-07 -0.17440917E-07  0.10997314E-09  0.27854501E-07  0.25623135E-08
  0.19417217E-07 -0.87587150E-08 -0.37428231E-09  0.16130634E-08  0.43221631E-07
 -0.13441203E-05 -0.41274985E-06 -0.22800595E-06  0.50749207E-06  0.30558802E-06
 -0.14466117E-06 -0.10885566E-06 -0.53225347E-06 -0.43827391E-06 -0.76977192E-06
 -0.32836317E-06  0.23229232E-06 -0.19033489E-05  0.24159715E-06 -0.55452190E-06
 -0.11649340E-06 -0.44735549E-06 -0.13326468E-06 -0.49459571E-06  0.33385207E-06
  0.55664170E-07 -0.73009273E-07  0.10207627E-06 -0.73717961E-06 -0.20401698E-07
 -0.42314766E-07 -0.16407649E-07  0.41550641E-07  0.40304639E-08  0.38258086E-07
 -0.27476758E-07  0.10528916E-07 -0.32366438E-07  0.76116889E-08 -0.17019040E-07
 -0.13197180E-06  0.17311069E-06 -0.66869195E-07 -0.45457450E-06  0.20619315E-05
  0.73364639E-07  0.13863797E-06 -0.18789018E-06 -0.21072367E-06  0.42668854E-06
  0.15476139E-06  0.99474088E-07 -0.93676112E-06 -0.53932499E-06  0.39650762E-06
  0.51552448E-06 -0.32541367E-06 -0.29162021E-07 -0.81825371E-08 -0.19542311E-07
 -0.16401495E-08  0.19767463E-07 -0.25327169E-07  0.30132565E-07  0.10148171E-07
 -0.15118672E-08 -0.87848083E-09  0.62885401E-08  0.23610377E-07 -0.74454592E-09
 -0.10654061E-06  0.77649495E-06 -0.78924124E-07  0.58762699E-07  0.28570032E-09
 -0.41205636E-07 -0.39601051E-08  0.98338846E-08 -0.11177427E-07  0.42425237E-07
 -0.59311976E-07  0.25365365E-07 -0.64505615E-08 -0.67327825E-08  0.15218103E-07
 -0.53313379E-06 -0.13449078E-05 -0.79625469E-07 -0.25637491E-06  0.16164840E-05
 -0.12462801E-06 -0.62688994E-06  0.26759319E-06  0.60639442E-06 -0.61308379E-08
  0.36748029E-07  0.70899661E-08  0.34068457E-07 -0.99970912E-08  0.18077632E-07
  0.21887315E-08  0.15703775E-07  0.35298606E-08 -0.90950623E-07  0.36288644E-06
  0.17739051E-06 -0.37101057E-06  0.76669694E-06 -0.83718502E-07 -0.64176525E-06
  0.15515090E-06 -0.30621122E-06 -0.64371592E-07 -0.36334789E-07 -0.25391920E-07
  0.49908385E-07 -0.30240792E-07  0.80393567E-08  0.40166272E-07 -0.19330399E-07
  0.39508563E-08 -0.19941708E-06 -0.14032569E-05 -0.97632111E-07  0.19489239E-06
  0.64929733E-06 -0.14897085E-07 -0.93503791E-07 -0.46938823E-06 -0.39676184E-06
 -0.75951614E-06 -0.10993356E-07  0.13515402E-06  0.22981014E-06 -0.11220079E-05
  0.18450240E-06  0.27565602E-06 -0.64122778E-06  0.53516230E-06 -0.30822501E-06
 -0.59775323E-06 -0.85884022E-07 -0.13563552E-05 -0.25980093E-05  0.75563039E-06
 -0.13056560E-05 -0.94179014E-07 -0.27998659E-06  0.19390952E-07 -0.22070865E-07
 -0.16420890E-08  0.17566587E-07 -0.87227975E-08  0.29005187E-07  0.20752199E-07
 -0.54221751E-08 -0.85708157E-08  0.16920072E-07  0.15786886E-07 -0.16324743E-08
  0.12046723E-07  0.53170362E-07  0.99661389E-08 -0.19174683E-07  0.10517022E-08
  0.78545023E-08 -0.22033461E-07 -0.35532394E-07  0.19406758E-08  0.19468851E-07
 -0.23624271E-07  0.28662332E-07 -0.99309697E-08  0.26680779E-08 -0.41565306E-08

  0.13737729E-07 -0.76504726E-08  0.79531144E-08  0.14996412E-07  0.17346264E-07
  0.90029323E-08  0.11881090E-07  0.27278562E-08 -0.68610465E-08  0.40351551E-06
 -0.51703369E-07 -0.55392287E-06 -0.35419199E-06  0.53453658E-07  0.40435184E-06
 -0.20280657E-06  0.27768538E-06 -0.32592617E-06  0.12476749E-06  0.95383411E-07
  0.91150459E-06  0.38284188E-06 -0.27126246E-06 -0.41011214E-06  0.46525582E-07
 -0.86262054E-07 -0.18911172E-06  0.33747785E-07  0.26169923E-06  0.52144976E-06
  0.72993117E-06  0.22083190E-06 -0.10438061E-05  0.47896858E-07  0.16126144E-06
  0.14143852E-06 -0.36495164E-08  0.88160906E-08 -0.65676042E-09  0.17673389E-07
  0.10440665E-07  0.10481068E-07  0.86507118E-08 -0.84662770E-08 -0.18297071E-07
  0.62879421E-07 -0.15493013E-06 -0.60928837E-07 -0.10165055E-06 -0.26711581E-06
  0.64664539E-06 -0.10378971E-07  0.73966321E-07  0.24684709E-06  0.13008588E-06
 -0.11377916E-06  0.35599836E-06  0.54790339E-06  0.57195757E-06 -0.44790407E-06
  0.50231305E-06  0.42749006E-06 -0.12061460E-06  0.13467010E-07 -0.11948566E-07
  0.11774712E-07  0.20018075E-07  0.20975023E-07 -0.57269599E-08 -0.66559351E-08
  0.21314261E-08 -0.73625109E-08  0.34934279E-08  0.10219775E-07  0.11609060E-07
 -0.54690801E-07 -0.78924124E-07  0.26193039E-06 -0.64585980E-08 -0.17489375E-07
 -0.28574126E-07 -0.78163934E-08  0.12231974E-08 -0.79135624E-09  0.32304682E-07
  0.23539198E-07 -0.61019352E-08 -0.10442016E-08 -0.13386810E-07  0.39472150E-08
  0.12713614E-06  0.10598135E-06 -0.19070687E-07  0.72753436E-07 -0.64298545E-07
 -0.15199536E-06 -0.56885597E-07 -0.20665289E-07 -0.24633226E-06  0.11952788E-07
  0.18945584E-08  0.46913384E-08  0.24011796E-07  0.26277563E-07 -0.10415558E-07
  0.80788136E-08 -0.15255339E-08  0.49253969E-08  0.36629887E-06 -0.24303841E-06
  0.34726980E-06 -0.48728942E-07 -0.27577616E-07 -0.13445784E-06 -0.14976985E-06
 -0.32726292E-06  0.39891696E-06 -0.11851744E-07 -0.51524915E-08  0.22687902E-09
  0.11948381E-07  0.18215381E-07  0.28042660E-07  0.10644790E-09 -0.21492426E-08
  0.15429391E-07 -0.14780795E-06 -0.30086975E-06 -0.61011031E-07 -0.97408594E-07
  0.55013598E-06  0.27439141E-06 -0.13765930E-07 -0.46233132E-06 -0.22753510E-06
  0.18202434E-06  0.32445449E-07 -0.26691760E-06 -0.13532070E-05 -0.42859814E-07
 -0.61980901E-06 -0.85966512E-06 -0.17977281E-06 -0.22174723E-06 -0.28302972E-06
 -0.21639318E-06  0.12204897E-06 -0.54397191E-06  0.42526889E-06 -0.29181535E-06
 -0.21561919E-06 -0.22029070E-06 -0.14128738E-06  0.87301792E-08 -0.30743491E-08
 -0.31329897E-07  0.17306950E-07  0.22279350E-07  0.78048950E-08 -0.23075860E-08
  0.95818879E-08  0.46658836E-08  0.44096587E-08 -0.13407835E-07  0.41197861E-08
  0.39026462E-07  0.18746327E-07 -0.25844870E-08 -0.43228773E-08  0.60830659E-08
 -0.59575811E-08 -0.15954160E-08  0.14896699E-07 -0.82509000E-08  0.30069509E-07
  0.22962332E-07  0.16222016E-07  0.22993036E-08  0.14183977E-07 -0.18663900E-09

 -0.13978702E-07  0.20549096E-07  0.56318561E-08  0.17246895E-07  0.12319441E-07
 -0.11766854E-08  0.41270986E-07  0.17533028E-08  0.12615997E-07  0.22977622E-06
 -0.36511532E-06 -0.36864768E-06  0.21497779E-06  0.10754831E-05 -0.64404791E-07
 -0.78350251E-07  0.38953067E-06 -0.52231197E-06  0.69017506E-07 -0.48787268E-06
  0.51203286E-07  0.15767922E-06  0.36103765E-06 -0.50667603E-07 -0.47144857E-06
 -0.42829640E-06  0.29161808E-06 -0.11144533E-06  0.42569391E-06  0.59050619E-07
  0.19978185E-06  0.73345813E-06  0.29904827E-06  0.55543124E-06 -0.22662975E-06
  0.14451593E-07 -0.12963855E-07  0.21348792E-07  0.11080636E-07 -0.87648662E-08
  0.14612116E-07  0.30824783E-08  0.25314249E-07 -0.31039060E-08  0.43520085E-08
  0.29336095E-06  0.89747824E-06 -0.73495520E-07 -0.74468240E-07 -0.95368655E-08
  0.26398615E-06  0.21696584E-06 -0.31440460E-06 -0.15100546E-06  0.50009848E-06
  0.47320014E-06 -0.11166004E-06 -0.73989895E-06  0.23455092E-06  0.97064790E-07
 -0.76500082E-06 -0.38375460E-07 -0.66584549E-07 -0.10351020E-07 -0.17796667E-07
  0.55903790E-08 -0.18482672E-07  0.17157102E-07  0.22842864E-08 -0.17920657E-07
 -0.30749183E-08 -0.20948515E-07 -0.41248656E-08 -0.21969403E-07 -0.67197012E-09
  0.23144858E-07  0.58762699E-07 -0.64585980E-08  0.41942900E-06 -0.20817277E-07
 -0.35871522E-07  0.32165108E-07  0.34230999E-07  0.16502037E-08 -0.22051644E-08
  0.99685186E-08 -0.14778829E-08  0.21577106E-07 -0.68733644E-08 -0.26941709E-08
  0.24393125E-06 -0.56774010E-06 -0.11401971E-07 -0.76662659E-07 -0.39211584E-07
 -0.45994832E-07  0.11488819E-05  0.29407281E-06  0.96371900E-07  0.55006994E-08
 -0.17888236E-07  0.21191216E-07  0.96150822E-08 -0.31235148E-07  0.61758071E-08
 -0.24646728E-07  0.43975595E-08  0.12299145E-08 -0.95998375E-07 -0.39494102E-06
 -0.91337930E-07 -0.17699914E-07 -0.97042707E-07  0.10185129E-06  0.68658419E-07
  0.93316230E-07 -0.34433599E-07 -0.25152183E-08  0.50848355E-07  0.21289948E-07
  0.29905912E-07  0.27708204E-07 -0.73646278E-08 -0.16274463E-07  0.15260511E-08
 -0.96766480E-08  0.34205444E-06 -0.93596648E-07 -0.29388115E-06  0.35088094E-06
 -0.95765062E-06  0.10472421E-06  0.72279710E-06 -0.15416393E-06 -0.40204606E-06
 -0.79603227E-06 -0.74713070E-07  0.43242236E-06 -0.12459862E-05  0.17002037E-05
 -0.19423329E-06 -0.31868369E-06  0.23528575E-06  0.69513669E-06 -0.89319359E-06
 -0.68506009E-06  0.25969092E-06 -0.46023542E-07 -0.88287880E-06 -0.10043338E-06
  0.14112772E-06 -0.28575670E-06  0.25615267E-06  0.30399300E-10  0.19534301E-07
 -0.26730421E-09  0.89868795E-08 -0.95150408E-08  0.60532887E-08  0.16346244E-07
 -0.48908746E-09 -0.11183079E-07  0.41228342E-08  0.36784610E-08 -0.20111101E-07
  0.18024061E-07  0.13017915E-07 -0.42927450E-08  0.22112439E-07  0.30359371E-08
  0.81973397E-09 -0.11359942E-07  0.56966048E-08  0.78127719E-08  0.14620007E-07
 -0.13528724E-07  0.15592826E-08  0.14088324E-07  0.15527743E-08  0.22172733E-08

 -0.44474757E-08 -0.21804924E-07  0.89865333E-08  0.10746129E-08  0.36998389E-08
  0.11285957E-07  0.28123362E-08  0.11068345E-07 -0.70966952E-08 -0.13576550E-06
 -0.22188002E-06  0.21547578E-06 -0.91260842E-07 -0.49024617E-07  0.47102810E-07
  0.20321075E-06  0.31194913E-06  0.56460034E-06  0.75504519E-06 -0.32248011E-06
 -0.24330408E-06 -0.33978716E-06 -0.97834282E-07  0.68282931E-07  0.67930799E-08
  0.10671832E-06 -0.12249537E-06 -0.60342528E-06 -0.33377078E-07  0.18815775E-06
 -0.24325527E-06 -0.33528318E-07 -0.59230856E-06 -0.27799562E-06  0.38104938E-06
  0.10441794E-06 -0.28213639E-08  0.24743706E-07 -0.68579065E-08 -0.15510221E-07
 -0.13171644E-07  0.59758340E-08 -0.19505327E-08 -0.17465596E-07  0.14626497E-08
  0.25925673E-06 -0.54456889E-06  0.34749221E-06  0.41272324E-06 -0.19022116E-07
  0.13146038E-06 -0.11965514E-06  0.10026125E-06 -0.22583554E-06  0.49502090E-06
 -0.11487450E-06  0.13955461E-06  0.53660229E-06 -0.43365259E-07 -0.33062689E-06
 -0.21754321E-07  0.26741168E-06  0.16774172E-06  0.33115331E-07  0.21340814E-07
 -0.15490210E-09  0.17335570E-07 -0.11098047E-07  0.17071809E-08 -0.28989552E-08
 -0.10668652E-07 -0.30359134E-08 -0.12502983E-07  0.18057261E-07 -0.38132932E-08
 -0.44329358E-07  0.28570032E-09 -0.17489375E-07 -0.20817277E-07  0.21157050E-06
  0.20266155E-07 -0.18132084E-07 -0.95877783E-08 -0.32271301E-08  0.21934337E-08
  0.53167928E-08 -0.25751063E-08 -0.88119837E-08  0.12504044E-07 -0.20904884E-09
  0.17082884E-07 -0.55288251E-07 -0.16481313E-06  0.44034635E-06  0.20074349E-06
 -0.10074623E-06  0.11222317E-06 -0.23795978E-06  0.31029860E-06 -0.87581897E-08
  0.19897937E-07 -0.24284684E-08 -0.16114394E-08  0.24069000E-08 -0.28525628E-08
 -0.71548159E-08 -0.51181402E-08  0.11872121E-08  0.93077783E-06  0.92749643E-07
  0.41265841E-06  0.60354483E-06  0.33040439E-07 -0.19918915E-06  0.20742530E-06
 -0.24631971E-06  0.15938953E-06  0.22102413E-08 -0.17777822E-07 -0.26849566E-07
  0.34279588E-08 -0.42141397E-08  0.50177088E-08  0.66115830E-08  0.22569040E-07
 -0.13373549E-08 -0.55487203E-06  0.15925802E-06 -0.32028889E-06 -0.75901971E-06
  0.42150040E-06 -0.20455266E-06 -0.10716895E-06  0.85741627E-08  0.21349735E-06
 -0.40985400E-06 -0.29717820E-06 -0.70113662E-07 -0.11477786E-05 -0.23881075E-06
  0.74060480E-06 -0.50621294E-06 -0.16734971E-06  0.46579792E-06  0.69308496E-06
  0.28325349E-06 -0.44250263E-07 -0.14170057E-05  0.24692541E-06  0.46607158E-07
 -0.72078107E-06  0.50112372E-06 -0.18125469E-06 -0.16665409E-07  0.59454983E-08
 -0.22047339E-08  0.76066268E-09 -0.85661836E-08  0.33904644E-08 -0.49154099E-08
 -0.34750753E-08 -0.93972928E-08 -0.17034337E-07  0.98035866E-08  0.82098171E-08
 -0.87500703E-08  0.41234385E-08  0.39491554E-08  0.12079946E-07 -0.14638831E-07
 -0.48974482E-08 -0.79471689E-08  0.25940763E-08 -0.81135682E-09 -0.11852060E-07
  0.14466525E-07 -0.81909806E-08  0.48196992E-08  0.16135348E-07  0.15003374E-08

  0.10873609E-07 -0.17261458E-07  0.19775850E-07 -0.16297814E-07  0.26194392E-07
  0.75327343E-08 -0.11490374E-07 -0.98662783E-08 -0.69698558E-08 -0.33627652E-06
 -0.31991822E-06 -0.33120188E-06 -0.11953694E-06  0.68860771E-07  0.11087028E-07
  0.13167159E-07 -0.39615605E-06  0.56254101E-06 -0.84596659E-07  0.97535547E-07
  0.15601398E-07 -0.60296507E-06  0.44192570E-06  0.93605097E-07 -0.48871426E-06
 -0.24954681E-06 -0.23334848E-06 -0.33421155E-06 -0.19229145E-06  0.24366813E-07
 -0.11789086E-06  0.96751079E-07  0.13612644E-06  0.26967274E-06  0.42230033E-06
  0.13689538E-06 -0.56496989E-08 -0.20918172E-07  0.64561830E-08 -0.70100395E-08
  0.24418767E-08  0.10783443E-07 -0.20267458E-07 -0.32200659E-08 -0.81060600E-08
 -0.46155052E-07  0.46241296E-06  0.15613255E-07  0.11327798E-06  0.52476747E-07
 -0.35053873E-06  0.16467443E-06  0.82889642E-08 -0.26965307E-06  0.24214613E-06
 -0.43826848E-06  0.50291278E-07 -0.22020312E-06 -0.75922778E-07 -0.95820065E-07
 -0.53549176E-06 -0.24198378E-06 -0.16885643E-07 -0.47410146E-08  0.43151519E-07
  0.56503678E-08 -0.12421260E-08 -0.46590264E-08  0.36492368E-08 -0.94668796E-08
 -0.14061297E-08 -0.15162830E-07  0.19565999E-07 -0.17802102E-07 -0.20750384E-07
  0.32407084E-08 -0.41205636E-07 -0.28574126E-07 -0.35871522E-07  0.20266155E-07
  0.33030841E-06 -0.78787593E-08 -0.23811679E-07  0.13874615E-07 -0.23742677E-08
 -0.12873629E-07  0.53220966E-08  0.71818093E-08 -0.11002078E-07 -0.13518888E-07
  0.15152283E-07  0.31504458E-06 -0.32235238E-06  0.15748362E-06  0.11878765E-06
  0.10440408E-07  0.51395208E-06  0.25658077E-07  0.33154014E-06 -0.32490596E-07
  0.28534543E-07 -0.97634002E-08 -0.30625726E-08 -0.13636664E-07  0.39003206E-08
  0.20239502E-07 -0.69296059E-08  0.25560612E-07  0.26443725E-06 -0.66629645E-07
 -0.37999677E-07 -0.61016362E-08 -0.23987240E-06 -0.32662715E-06  0.58495443E-07
 -0.48497920E-07 -0.31095876E-06  0.37196662E-08 -0.39695134E-08 -0.33111228E-07
  0.41435952E-08  0.20433024E-07 -0.20410022E-07  0.18828263E-07 -0.34299117E-08
  0.49764126E-07 -0.27329539E-06  0.25209230E-06  0.48450744E-06 -0.92411775E-07
  0.13718210E-06  0.90485775E-07 -0.50249256E-06  0.11827547E-06  0.45548807E-06
 -0.96722674E-07 -0.35838189E-06  0.60541178E-07  0.37683340E-07  0.53034087E-06
 -0.54422296E-06 -0.68679428E-06 -0.76852295E-06 -0.39141710E-06  0.76610478E-07
 -0.21214333E-06  0.23582340E-06 -0.13726777E-06  0.28758858E-06  0.23828942E-07
 -0.83291109E-06  0.45835367E-06  0.26849241E-07 -0.77098550E-09 -0.20175966E-07
  0.17814960E-07 -0.22587687E-08  0.34001502E-08 -0.15306234E-08 -0.11729828E-08
 -0.81547830E-09 -0.59422138E-08 -0.10887833E-07  0.11382140E-07  0.15881528E-07
 -0.12123132E-08 -0.19113401E-08 -0.70639380E-08  0.23261929E-08 -0.93612723E-08
  0.27437192E-08 -0.65501838E-08 -0.27715906E-07  0.11840644E-08  0.51524192E-08
 -0.13878404E-07 -0.12751749E-07  0.17972943E-07  0.22370189E-08 -0.14221610E-07

 -0.75642483E-08  0.22144222E-07 -0.57313926E-08  0.22553134E-07 -0.41165246E-08
 -0.56907335E-09  0.33734796E-07  0.56526306E-08  0.85206845E-08  0.42910181E-06
 -0.14361155E-06  0.17442883E-06 -0.59887253E-06  0.47252199E-06  0.51082854E-06
  0.14441276E-06  0.64294745E-06 -0.40346160E-07  0.38791042E-07 -0.31316815E-06
 -0.30477481E-07  0.29386803E-06  0.21992521E-06  0.25551975E-07  0.66318490E-06
 -0.22988449E-06  0.59493569E-07 -0.39404676E-06 -0.11943630E-06  0.19706969E-06
  0.18080871E-08 -0.66700758E-07  0.11722212E-05 -0.17322968E-06  0.54097091E-06
  0.22418892E-06 -0.80105801E-08 -0.45701439E-08  0.17724526E-07 -0.28260565E-07
  0.11732549E-07 -0.83920748E-08  0.23439764E-07  0.18925544E-09  0.11298616E-07
 -0.28018779E-06  0.63274088E-06  0.11229795E-06 -0.70614108E-06  0.26773204E-06
  0.21164991E-06  0.88194883E-07 -0.33594951E-06 -0.35926028E-07 -0.98830940E-06
 -0.29761941E-07 -0.36285318E-06 -0.93475435E-06  0.64954237E-06  0.14449766E-06
 -0.18003339E-06  0.28428034E-06 -0.66220009E-07  0.32222963E-07 -0.18752330E-08
 -0.22955891E-07 -0.27129666E-07  0.13240930E-07  0.16660368E-07 -0.10240208E-07
 -0.12598728E-07 -0.41481210E-08 -0.65723031E-08 -0.44470566E-07 -0.10988243E-07
  0.13796427E-07 -0.39601051E-08 -0.78163934E-08  0.32165108E-07 -0.18132084E-07
 -0.78787593E-08  0.55799559E-06  0.14413188E-07  0.19250721E-07 -0.34483491E-07
  0.81804846E-08 -0.20127446E-07 -0.19432341E-07 -0.33042450E-07 -0.91225321E-08
  0.62121954E-06  0.16984753E-06  0.65503577E-06  0.68591935E-06 -0.79002055E-06
  0.71986922E-06  0.83170981E-07  0.10600150E-05  0.79243927E-08 -0.12579382E-07
 -0.18931933E-07 -0.15383899E-09  0.18546560E-07 -0.22241644E-08 -0.33421252E-08
  0.40877484E-08 -0.16905652E-07  0.23892621E-08 -0.17760702E-06 -0.82245717E-06
  0.82901150E-07  0.10085194E-05  0.33984345E-06 -0.41127305E-06  0.20668944E-07
  0.11762448E-06  0.87713937E-07  0.30059409E-07  0.63199039E-07 -0.59030959E-08
 -0.34532394E-07  0.95004733E-08  0.19935110E-08 -0.41241583E-07  0.11232621E-08
 -0.73357812E-08  0.19167729E-05  0.40764414E-06  0.23450896E-06  0.12513477E-05
 -0.15828565E-06  0.22435433E-06  0.72217896E-07 -0.87392717E-06  0.73851934E-06
 -0.94392103E-06  0.23121800E-06  0.20012684E-06 -0.74647782E-06  0.22621421E-06
 -0.10969634E-05 -0.41210608E-06 -0.49954044E-06  0.13188197E-06 -0.11640561E-06
  0.43715700E-06  0.98793107E-07  0.25409217E-05 -0.57747600E-06 -0.22899986E-06
 -0.48337146E-06 -0.85355939E-07 -0.21408444E-07 -0.11786303E-07  0.51074479E-08
  0.32783082E-07  0.99655142E-09 -0.24675501E-07 -0.60381980E-09  0.17701480E-07
 -0.88122967E-09  0.11211941E-07  0.15937603E-07  0.82759417E-09 -0.16270365E-07
  0.26448386E-08 -0.28189277E-07  0.26056232E-10  0.21384591E-07 -0.70008946E-08
  0.51688262E-08  0.52633751E-07  0.23323265E-08 -0.10560337E-07  0.12908640E-07
 -0.15488956E-07 -0.10685358E-07 -0.68400599E-08  0.76991620E-08  0.20219825E-07

 -0.34529858E-08 -0.27778688E-07 -0.17260767E-07 -0.96959064E-08  0.17270793E-07
 -0.18272136E-08 -0.31138284E-08  0.24014495E-07  0.16885093E-07 -0.46614354E-07
 -0.42548823E-06  0.31444629E-06  0.25028496E-06 -0.64834499E-06  0.19482712E-06
 -0.43212243E-06 -0.42808272E-06  0.12363407E-05  0.41964222E-06  0.31546226E-05
 -0.11127486E-05 -0.28671029E-06 -0.17781502E-05  0.57040620E-06 -0.14346688E-05
  0.39573132E-06  0.70224525E-06 -0.33648552E-06 -0.11311487E-05 -0.50868743E-06
 -0.43689871E-06  0.21490733E-05  0.54785265E-06  0.36228878E-06 -0.14302328E-06
  0.39611285E-06  0.18308935E-07  0.15722508E-07 -0.30497205E-07 -0.24108260E-07
  0.73025897E-07 -0.14417911E-07  0.69663285E-08 -0.15219324E-08  0.14359253E-07
  0.73275512E-06 -0.14381713E-05  0.18091165E-06  0.36766689E-07 -0.11890968E-06
  0.30678536E-06  0.13884405E-05  0.21790276E-06 -0.72298500E-06 -0.23866258E-06
  0.14318346E-05  0.30421227E-06  0.61547744E-06 -0.30280309E-05 -0.17965476E-06
 -0.10160504E-05  0.79572795E-07 -0.21386428E-06  0.13964658E-07 -0.39588015E-07
  0.20022713E-07  0.39453507E-08 -0.50789809E-08 -0.16665828E-07 -0.15737627E-07
 -0.11507422E-07 -0.28200709E-07  0.21982187E-07  0.11102266E-08 -0.87211445E-08
 -0.77902211E-08  0.98338846E-08  0.12231974E-08  0.34230999E-07 -0.95877783E-08
 -0.23811679E-07  0.14413188E-07  0.99695064E-06 -0.40873148E-07  0.77271178E-08
  0.34385440E-07 -0.11901831E-07  0.43293770E-07 -0.18826683E-07 -0.18094361E-07
  0.22584511E-06  0.86341127E-06  0.38855747E-06 -0.20882423E-06 -0.53187171E-06
  0.39397359E-06  0.50379111E-06  0.91981904E-08 -0.14520523E-08  0.35135333E-07
  0.29537776E-07 -0.15506868E-07  0.96763223E-08 -0.48167697E-07 -0.15644092E-07
  0.54007777E-07  0.10727246E-07  0.87875367E-08 -0.32933034E-07  0.13620622E-05
 -0.47095807E-06 -0.63226750E-06 -0.22989951E-05  0.54537688E-06 -0.30211073E-06
  0.35855256E-06 -0.68530764E-06  0.67421703E-07  0.40079298E-07  0.99786245E-08
  0.77257424E-08 -0.42215045E-07  0.17770272E-08 -0.41905569E-07  0.14473988E-07
  0.31828654E-07  0.23044908E-06 -0.12630963E-05 -0.20448978E-06 -0.17732851E-06
  0.11416408E-06 -0.10814973E-05  0.85685070E-06  0.47737462E-06 -0.56331202E-06
 -0.53999573E-06  0.18748453E-05  0.16752227E-06 -0.37433718E-06  0.44276193E-06
 -0.38995042E-06  0.76003054E-06 -0.25728304E-06 -0.10676487E-06  0.91605352E-06
  0.13270589E-05 -0.77570143E-06  0.16078301E-05 -0.41200755E-06 -0.77362282E-06
  0.13762949E-05  0.88161230E-06 -0.11172053E-06  0.34008149E-08  0.86464040E-07
 -0.15335974E-07 -0.36872315E-08 -0.16827460E-07  0.73871437E-08  0.10352058E-07
 -0.28549137E-08 -0.13895900E-07 -0.83089143E-08 -0.18824323E-07 -0.11511649E-07
 -0.64613362E-08 -0.39689638E-07 -0.51081126E-08 -0.11897228E-07  0.85262772E-08
  0.10320325E-07  0.72756996E-08  0.20298259E-07 -0.48864268E-08  0.44141810E-08
 -0.86405859E-07  0.10099428E-07  0.11732156E-07 -0.17100940E-07  0.31859463E-08

  0.70172816E-08  0.19162376E-07  0.92881133E-09  0.79849516E-08 -0.43010847E-08
 -0.12591290E-08  0.14949888E-07 -0.12101207E-07  0.79107277E-08 -0.15624906E-07
  0.19018979E-06 -0.15160889E-08 -0.45923164E-06  0.11831203E-06  0.68990639E-06
 -0.32296715E-07 -0.90939265E-06  0.23666650E-06 -0.78274229E-07  0.14894674E-08
 -0.31904204E-06  0.32164577E-07  0.10574034E-06  0.37269190E-06  0.25929638E-06
  0.38058528E-06  0.20974743E-06  0.32321555E-06  0.48026030E-06 -0.77374219E-06
 -0.32561047E-06 -0.23634056E-06  0.11518989E-05 -0.17271085E-06 -0.20978675E-06
 -0.64252238E-07 -0.25011265E-07  0.27425557E-07  0.53515453E-08 -0.13525178E-07
  0.44877493E-08 -0.93324458E-08  0.84026750E-08 -0.36888402E-08 -0.19039985E-07
 -0.44252483E-06  0.29199250E-06  0.19297955E-06 -0.36492925E-06 -0.11274737E-06
  0.55147219E-06 -0.21898972E-06  0.16192494E-06 -0.46115916E-06 -0.42174556E-06
 -0.12276384E-06 -0.66669534E-07  0.24140300E-06  0.74202221E-06 -0.42310755E-06
  0.23568383E-06 -0.77578553E-07  0.39812490E-06 -0.32784629E-07  0.15143918E-07
 -0.27598166E-07  0.20896997E-07 -0.22759598E-07 -0.10962352E-07  0.12596620E-08
  0.34269614E-08 -0.76031087E-08 -0.13595584E-07 -0.63559380E-08  0.16708060E-07
  0.43444247E-08 -0.11177427E-07 -0.79135624E-09  0.16502037E-08 -0.32271301E-08
  0.13874615E-07  0.19250721E-07 -0.40873148E-07  0.39150163E-06  0.72333484E-08
  0.15154431E-07 -0.92020761E-08 -0.76253800E-08 -0.89430405E-08  0.52593320E-09
  0.92248290E-06 -0.30997173E-07  0.25803088E-06  0.32706145E-06 -0.13212586E-06
 -0.81315076E-06  0.18058748E-07  0.15441688E-05 -0.44297287E-06  0.24228223E-07
  0.30324847E-07  0.37326779E-07  0.34944344E-08 -0.51473349E-08  0.11168292E-08
 -0.58553509E-08  0.93099653E-09  0.15804727E-08  0.33922532E-07  0.25268574E-06
 -0.49466579E-06 -0.24431199E-06  0.58294316E-06 -0.27297563E-06 -0.25523407E-07
 -0.47651672E-06  0.21479143E-06  0.31036034E-07  0.21667586E-07 -0.50790873E-07
 -0.20463506E-07  0.31118188E-07  0.34476262E-07  0.64409549E-08 -0.38415240E-07
  0.22852269E-07  0.14531055E-07  0.88018525E-06  0.15084479E-06  0.13573072E-06
  0.39731717E-06 -0.65393905E-06  0.40312625E-06  0.11948675E-05  0.55940552E-06
  0.38901945E-06  0.49638871E-08  0.26188305E-06  0.60681938E-06  0.10679323E-06
 -0.24879064E-06  0.49688010E-06 -0.37516824E-06  0.32488633E-06 -0.63736478E-07
  0.11277573E-06 -0.14942279E-06 -0.69725870E-06  0.85460235E-06 -0.98002763E-06
 -0.66748804E-06 -0.37982735E-06 -0.58056084E-06  0.75521742E-08  0.15170599E-08
  0.11290437E-07 -0.15012864E-08  0.67305454E-08  0.58872701E-08  0.10000336E-07
  0.30547361E-08  0.55785601E-08  0.96097250E-08 -0.14231069E-07  0.26633560E-08
 -0.13573781E-07  0.11129623E-07 -0.15811567E-08  0.21693046E-08  0.11930697E-07
  0.34963601E-08  0.62349680E-08 -0.20399854E-07  0.24115250E-07 -0.39970463E-08
 -0.21986530E-07  0.84116443E-08 -0.10212760E-08  0.16160299E-09  0.13903605E-07

  0.15807387E-07  0.23972598E-08  0.11501686E-07 -0.32810146E-07  0.33888522E-07
  0.12719600E-07  0.27722517E-08  0.45508633E-09  0.33669066E-08  0.82428205E-06
 -0.13526413E-06 -0.22946505E-06 -0.22896073E-06  0.35880038E-06  0.12184173E-06
 -0.14873225E-06 -0.16936259E-06  0.26161767E-07 -0.12168215E-05 -0.28364036E-06
 -0.62486592E-07  0.59057533E-06 -0.22923638E-06 -0.34247282E-06 -0.60961126E-06
 -0.20095874E-07 -0.38306944E-06  0.39864552E-06 -0.27834053E-06  0.93062813E-07
  0.32877047E-06 -0.52730459E-07 -0.32232521E-06 -0.16879237E-07 -0.30246829E-06
  0.27603323E-06 -0.14251630E-08  0.15478717E-07  0.76735703E-08 -0.26974592E-07
  0.33132112E-07  0.23955497E-07  0.13309617E-07 -0.13689651E-07 -0.17151477E-07
 -0.32190340E-07 -0.18856939E-06 -0.11929003E-06 -0.20352742E-06  0.20578935E-06
 -0.87608372E-07  0.40986249E-06 -0.95197216E-07  0.26876996E-06  0.88196877E-06
  0.89709616E-07 -0.52982436E-07  0.83577212E-06 -0.35931966E-06 -0.73549172E-07
 -0.30040967E-06  0.25946295E-06  0.22576578E-06  0.31490880E-08 -0.95419443E-08
 -0.12284516E-07 -0.58555843E-08  0.31700220E-07  0.28661097E-07 -0.10773822E-07
  0.17559928E-07 -0.60007941E-08  0.17006801E-07  0.77890019E-08 -0.10324782E-07
 -0.26289067E-07  0.42425237E-07  0.32304682E-07 -0.22051644E-08  0.21934337E-08
 -0.23742677E-08 -0.34483491E-07  0.77271178E-08  0.72333484E-08  0.45153091E-06
 -0.14884294E-06 -0.61828124E-07  0.15269207E-07  0.38087321E-08  0.43667139E-08
 -0.30071262E-07 -0.23465046E-06 -0.38417889E-06  0.88882060E-06  0.69308238E-06
 -0.13066253E-05  0.63604327E-08  0.81135895E-07  0.44368662E-07  0.36384708E-07
 -0.11799025E-07  0.13417473E-07  0.41842732E-08  0.26670831E-07  0.15226959E-07
  0.22561620E-07  0.10634853E-07 -0.12563526E-07  0.24762564E-06 -0.33271018E-06
  0.35127416E-06  0.36764563E-06 -0.42592477E-06  0.16916756E-06 -0.32816520E-06
  0.40424605E-08  0.16978547E-06 -0.70029079E-08  0.16828511E-07 -0.28899604E-07
  0.25350674E-08  0.18315241E-07  0.41461382E-07 -0.15119106E-07  0.17318323E-07
  0.10209033E-07  0.94051592E-07 -0.25057573E-06  0.34152937E-06 -0.65144071E-06
  0.10637436E-06 -0.48477501E-06 -0.44659013E-06  0.66851050E-06  0.70184710E-06
 -0.48351452E-06 -0.36671955E-06 -0.55357238E-06  0.80301213E-06 -0.31609459E-06
 -0.16048038E-06 -0.13527287E-06  0.91048456E-07  0.38858321E-06 -0.31902728E-06
  0.10884659E-06  0.18827540E-06  0.82618993E-06 -0.23370059E-06  0.62784497E-07
  0.65424535E-07  0.35172242E-06 -0.89302374E-08  0.97275787E-08 -0.10455311E-07
  0.99095043E-08 -0.71709654E-08  0.21625370E-07  0.17083817E-07 -0.82352282E-08
  0.61188756E-08  0.19117883E-08 -0.48631572E-09  0.55866486E-08 -0.73272669E-08
  0.57682412E-08  0.47493068E-07  0.88710750E-08 -0.97586236E-08  0.18946234E-07
 -0.56292019E-08 -0.13259650E-07 -0.41400189E-08  0.34547791E-08  0.14361362E-07
  0.28830058E-07  0.19376940E-07 -0.12984702E-07  0.23968669E-09  0.61496194E-08

  0.80761459E-08 -0.38362655E-07 -0.24494975E-07  0.29840472E-07 -0.23585778E-07
  0.25611334E-07  0.12429212E-07  0.42210827E-08 -0.15990270E-07 -0.19464795E-06
  0.39768709E-06  0.20382885E-06 -0.21206859E-06 -0.12312541E-06  0.56965079E-07
 -0.40009818E-07 -0.43172995E-07  0.72999668E-06  0.70675742E-06  0.48854908E-06
 -0.28200885E-06 -0.16571785E-06  0.11054771E-06  0.34800799E-06 -0.20726698E-06
  0.11272244E-06 -0.26172998E-06  0.15577582E-06  0.67581691E-06 -0.87970854E-07
  0.17767111E-06  0.48986958E-06  0.15868605E-06 -0.85344832E-07 -0.11542207E-06
  0.35725318E-06 -0.16114017E-08 -0.37763904E-07  0.55374463E-08  0.32647625E-07
 -0.42776292E-07  0.15435897E-07  0.26465467E-07 -0.20449124E-08  0.13852051E-07
  0.47994211E-06  0.47440612E-06  0.21327265E-06  0.22839353E-06 -0.64896505E-06
  0.25506352E-06  0.22571659E-06 -0.10834579E-06 -0.35869149E-06 -0.52889636E-06
 -0.58344358E-06 -0.60191604E-06 -0.34180821E-06  0.18272168E-05 -0.22484112E-06
  0.57092993E-06 -0.19412367E-07 -0.11610912E-06 -0.25596248E-07  0.27831274E-08
 -0.72247600E-09  0.47857752E-07 -0.33801660E-07  0.67887177E-08 -0.58521968E-07
 -0.34436530E-08 -0.81817613E-09  0.36393423E-08  0.16850260E-07 -0.23676435E-08
  0.32798903E-07 -0.59311976E-07  0.23539198E-07  0.99685186E-08  0.53167928E-08
 -0.12873629E-07  0.81804846E-08  0.34385440E-07  0.15154431E-07 -0.14884294E-06
  0.83540914E-06 -0.81007715E-07  0.29164646E-07 -0.41554883E-08 -0.38947023E-07
  0.54197293E-06  0.23925075E-06  0.14100505E-06  0.50156951E-06 -0.34986610E-06
  0.10434668E-06  0.27827632E-06  0.43324621E-06 -0.45354043E-06  0.32889920E-07
  0.39111742E-07 -0.25431470E-08  0.28395730E-07 -0.11121079E-06  0.30040566E-07
  0.64189714E-07 -0.41395158E-08  0.24174331E-07  0.37973468E-06  0.82600945E-06
 -0.16050670E-06 -0.13774726E-05  0.13190673E-05 -0.19976755E-06  0.45852629E-06
 -0.33037483E-06 -0.16104885E-06 -0.59004450E-07 -0.47161319E-07 -0.63533617E-08
  0.85075099E-07 -0.35295350E-07 -0.12705230E-07  0.35360199E-07  0.23140664E-07
  0.37302625E-08 -0.12154875E-05 -0.54874410E-06 -0.26314717E-06 -0.70157216E-06
  0.43556927E-07  0.97833732E-06 -0.13460221E-06 -0.65090451E-06 -0.69155985E-06
 -0.10671465E-05  0.10291523E-06  0.99389987E-06 -0.13313734E-05  0.60227679E-06
  0.41488893E-06  0.91487952E-06 -0.10997927E-06 -0.89983189E-06  0.66650025E-06
 -0.66666078E-06 -0.53281636E-07 -0.72121129E-06  0.35976423E-06 -0.22867659E-07
 -0.29514103E-07 -0.59213384E-07  0.66593555E-06  0.83405228E-08  0.68122456E-07
  0.13595895E-07  0.27923060E-07 -0.21233331E-07  0.15253995E-07 -0.44581746E-08
 -0.13924066E-08  0.12851509E-07  0.12040465E-07  0.40012591E-07  0.88862063E-08
  0.37232844E-07 -0.32298382E-07  0.24231719E-07 -0.18017689E-08 -0.20787646E-08
 -0.92632170E-08 -0.16087882E-07 -0.30071347E-07 -0.21644053E-08  0.31517941E-07
  0.83858414E-08  0.32465469E-07 -0.81944886E-08 -0.42243880E-08 -0.15093055E-08

  0.18892296E-07 -0.74913769E-08 -0.15987344E-08  0.26181007E-07  0.27866189E-07
  0.38548466E-08  0.86435385E-09  0.61493652E-08  0.31487211E-08  0.17327323E-06
 -0.25943229E-06 -0.84827903E-07 -0.49294110E-06  0.32340357E-06  0.28712210E-06
 -0.38616316E-06 -0.19363484E-07 -0.38962806E-06 -0.17174903E-06 -0.85260433E-07
 -0.75505910E-06 -0.13954648E-06  0.38391229E-06 -0.26399720E-06  0.31263338E-07
  0.21135778E-06 -0.30027962E-06  0.36244581E-07  0.46434540E-07 -0.43418714E-06
 -0.35804869E-08  0.11272917E-06 -0.18840572E-06 -0.50598771E-07  0.21100001E-06
 -0.15133458E-06  0.20996855E-08 -0.39957583E-08  0.92527588E-08  0.29632863E-07
  0.12380369E-07 -0.20024460E-08 -0.67635604E-08  0.11917021E-07 -0.88616741E-08
 -0.26040838E-06 -0.30027702E-07 -0.35877533E-08 -0.19331500E-06  0.34777969E-06
 -0.85177350E-07 -0.17527125E-08  0.89391597E-07 -0.15593994E-06 -0.50147432E-07
  0.90816795E-07  0.27403348E-06 -0.82683399E-06 -0.14275076E-06  0.25339841E-06
 -0.22363231E-06  0.35352731E-08 -0.11517420E-06  0.26339891E-08  0.18030067E-07
 -0.50282070E-09  0.27001630E-07  0.35859759E-08 -0.41490222E-08  0.16003505E-07
  0.16199872E-08  0.70747133E-08  0.13330243E-08 -0.12181151E-07  0.85814110E-08
  0.35445344E-07  0.25365365E-07 -0.61019352E-08 -0.14778829E-08 -0.25751063E-08
  0.53220966E-08 -0.20127446E-07 -0.11901831E-07 -0.92020761E-08 -0.61828124E-07
 -0.81007715E-07  0.22069841E-06 -0.35713309E-08  0.66097600E-08 -0.12501970E-07
 -0.82152069E-06  0.11370844E-06 -0.45662573E-06 -0.64086173E-06  0.17681615E-06
  0.87643756E-06 -0.10300313E-06 -0.65526160E-06  0.49495902E-06  0.16812081E-08
  0.55034830E-08  0.14826454E-07  0.11099365E-07  0.23341521E-07  0.33812092E-08
 -0.83939160E-08  0.23917756E-08  0.12104105E-07 -0.70971872E-07 -0.23055076E-06
 -0.97682792E-08 -0.19358348E-06 -0.12195758E-06  0.59455063E-06 -0.97340093E-07
  0.24319275E-06  0.94791796E-07 -0.19982766E-07 -0.22621314E-07  0.42782315E-07
  0.39319697E-07  0.25024908E-07 -0.72169756E-08  0.16904004E-07 -0.40818038E-07
 -0.21190809E-07 -0.20044674E-06 -0.88265345E-07  0.30516587E-06  0.11778708E-06
  0.64814986E-06 -0.11267040E-07  0.16130184E-06 -0.14521904E-06 -0.37803912E-06
  0.36471971E-06 -0.31090417E-06 -0.48014108E-06  0.27786372E-07  0.16151789E-06
  0.30342638E-06  0.36953306E-06 -0.52662533E-07  0.59381888E-07 -0.11038544E-06
 -0.49128300E-07  0.47279592E-08 -0.20232881E-06 -0.61735730E-07  0.32481363E-06
  0.16722871E-06  0.79671170E-07 -0.43687756E-07  0.72196453E-08 -0.58544517E-08
 -0.10606876E-08  0.84038338E-08  0.17621855E-07  0.18680079E-07  0.54978586E-08
  0.89959054E-08 -0.62255786E-08 -0.29563279E-08 -0.46400088E-08  0.19591730E-07
  0.12581287E-07  0.28225421E-07  0.23328469E-07 -0.25726433E-08  0.55914365E-08
 -0.86271541E-08  0.13540805E-09 -0.62800268E-08  0.14853684E-07  0.21037705E-07
  0.36252917E-07  0.84373280E-09 -0.13857936E-08 -0.23685431E-08  0.30570670E-08

  0.17809064E-07 -0.19569691E-07  0.25339740E-07  0.29904123E-08 -0.15567130E-08
 -0.12089955E-07  0.15426001E-07  0.23688875E-08  0.11576414E-08 -0.25771474E-06
  0.42639633E-06  0.11219374E-06 -0.53335059E-06 -0.28631641E-06  0.33638231E-06
 -0.86044321E-06  0.47662853E-06  0.50191043E-06 -0.62433084E-06  0.53245373E-06
  0.47994596E-06 -0.10252648E-05  0.68622285E-06 -0.21385042E-06 -0.11547376E-06
 -0.51179445E-06  0.31747205E-06 -0.47307452E-06 -0.10807240E-05 -0.27609434E-06
  0.54263047E-06 -0.39969065E-06 -0.30670336E-06 -0.21092504E-06  0.11163949E-06
 -0.44376660E-06 -0.21663446E-07 -0.19121356E-07  0.11983079E-07 -0.22224809E-07
  0.36014358E-07  0.28147633E-08  0.90572679E-08  0.41822364E-08 -0.61503586E-08
 -0.45915613E-06  0.10816001E-06  0.22613574E-06  0.13442717E-06 -0.37504618E-06
 -0.15631511E-06  0.23780866E-07  0.20883780E-06  0.29605167E-06 -0.92057129E-07
  0.17232553E-06 -0.15275423E-06  0.14574595E-06  0.58512757E-06  0.38901397E-07
 -0.25508398E-06  0.20072589E-07 -0.18887072E-06  0.43837887E-08 -0.45576185E-08
 -0.19027465E-09  0.74403579E-08 -0.21665235E-07 -0.15692987E-09  0.11176920E-07
  0.20333476E-08  0.30976653E-07  0.35891126E-08 -0.10798490E-07  0.41078185E-08
 -0.46726545E-08 -0.64505615E-08 -0.10442016E-08  0.21577106E-07 -0.88119837E-08
  0.71818093E-08 -0.19432341E-07  0.43293770E-07 -0.76253800E-08  0.15269207E-07
  0.29164646E-07 -0.35713309E-08  0.44093752E-06 -0.18655633E-07  0.92396624E-08
 -0.89138919E-07 -0.96644123E-07  0.12574391E-06 -0.23769770E-06 -0.18182896E-06
  0.16486715E-06  0.55624257E-06  0.10860943E-06  0.61417556E-06  0.33097170E-07
 -0.18596151E-07 -0.48902961E-08  0.18706449E-07  0.30106893E-09 -0.98817339E-08
  0.22439491E-07  0.17702592E-08 -0.97580111E-08  0.18878449E-07 -0.65693248E-07
 -0.46220098E-07 -0.29482595E-06 -0.88407576E-06  0.20374944E-06  0.34610558E-06
  0.20444954E-06 -0.24992802E-06  0.15289654E-07 -0.23324697E-07  0.30075659E-07
  0.35084949E-07  0.26080167E-07 -0.11549430E-07  0.21811406E-08  0.11175862E-07
 -0.57279191E-08  0.41202945E-06  0.42796081E-07 -0.18663736E-06  0.23046474E-06
 -0.97095561E-06 -0.27821606E-06 -0.25052280E-06 -0.93509872E-06 -0.34041026E-07
 -0.56411183E-06  0.75048712E-07  0.87756571E-07  0.32885025E-06  0.62290397E-06
 -0.46568031E-07  0.26519216E-06  0.41881403E-06  0.62087352E-07 -0.10042514E-06
  0.18529608E-07  0.75397711E-08  0.55806586E-06 -0.23465197E-06 -0.10705334E-06
 -0.49669415E-06 -0.25743241E-06 -0.17076864E-06  0.25020947E-08 -0.84345405E-09
  0.82312578E-08  0.13466430E-07 -0.55036484E-08  0.66319730E-08 -0.13490079E-07
 -0.16471424E-08 -0.61793239E-08 -0.42233294E-08  0.51188733E-08  0.10284870E-08
 -0.14528172E-07  0.22803845E-07 -0.13452611E-08 -0.73455062E-08  0.10718386E-08
  0.14549050E-07  0.66385458E-08  0.10305564E-08 -0.16040474E-07 -0.23305210E-08
  0.94609917E-09 -0.22165631E-09  0.16346900E-07 -0.52922373E-08  0.26701040E-08

 -0.21308737E-07  0.12105267E-07 -0.18884794E-07  0.90690517E-08 -0.59630891E-08
  0.60213522E-08  0.93911947E-08 -0.26631388E-08  0.13904469E-07  0.25507289E-06
 -0.48055129E-06  0.53973416E-06 -0.25586804E-06  0.26025675E-06 -0.18799582E-06
  0.11653809E-06  0.19172694E-08  0.27370094E-06 -0.10814056E-06 -0.60975657E-07
 -0.23453050E-06 -0.36014901E-06  0.51669629E-06 -0.80652083E-06  0.38759111E-06
  0.33887261E-07 -0.29271748E-06  0.46575609E-06  0.36791705E-07 -0.61928855E-07
  0.46469846E-06 -0.45333885E-06  0.25581409E-06  0.15942548E-06 -0.26981506E-06
  0.15408729E-06  0.12322374E-07 -0.58524694E-08  0.10032709E-07  0.97611541E-08
 -0.12615867E-07 -0.33263909E-08  0.23227605E-08 -0.51761619E-08  0.39942636E-08
 -0.86359306E-07 -0.26129900E-06  0.64793223E-06  0.23942174E-06 -0.21337101E-06
 -0.29449258E-07  0.71995811E-07  0.12075939E-06 -0.32151860E-06 -0.24620583E-06
 -0.33605119E-07  0.96497198E-07 -0.58294169E-06  0.22795634E-06  0.18375531E-06
 -0.19776048E-06  0.42292969E-06 -0.40842051E-07 -0.17056570E-07  0.37566232E-08
 -0.48798865E-08 -0.13580160E-08  0.23426483E-08 -0.35061309E-08  0.42364521E-08
  0.20618566E-07 -0.96281973E-08 -0.41782483E-08 -0.78129384E-08  0.18508879E-07
  0.86156793E-08 -0.67327825E-08 -0.13386810E-07 -0.68733644E-08  0.12504044E-07
 -0.11002078E-07 -0.33042450E-07 -0.18826683E-07 -0.89430405E-08  0.38087321E-08
 -0.41554883E-08  0.66097600E-08 -0.18655633E-07  0.23623488E-06  0.79337151E-08
 -0.94021922E-06  0.22392310E-06 -0.76485430E-06  0.43517510E-06  0.71135764E-06
 -0.41934709E-06  0.98274431E-09 -0.12599087E-05  0.85353294E-07 -0.76899811E-08
 -0.15082262E-07  0.17277291E-07 -0.12524364E-07  0.61000100E-08 -0.29163868E-08
  0.96868773E-08  0.71336178E-08 -0.59929023E-08 -0.69598997E-07  0.23588316E-06
 -0.52618373E-07  0.55034850E-06 -0.17565386E-06 -0.91554614E-07 -0.74910523E-07
  0.15346528E-06  0.73227250E-07 -0.23038785E-07  0.66462520E-08  0.17668423E-09
  0.71747139E-08  0.12486957E-07  0.17566211E-08  0.46120469E-08 -0.33763218E-07
 -0.25838511E-07 -0.86720147E-07  0.27509716E-06  0.50504103E-06  0.19240480E-06
 -0.10965869E-06 -0.42208264E-06 -0.59454250E-07 -0.10683252E-06 -0.21835486E-06
  0.47095929E-06 -0.69624491E-06  0.46039576E-07  0.28978848E-06 -0.25666539E-06
  0.18411102E-06  0.27452920E-06  0.11722140E-05 -0.43326779E-07 -0.21804635E-06
 -0.86638904E-07 -0.21965000E-06 -0.17262340E-06 -0.30234185E-06  0.48454081E-06
  0.49732160E-06 -0.41663887E-06 -0.34830603E-06 -0.23748345E-07 -0.10853369E-07
  0.23155458E-07 -0.91178670E-09 -0.14645305E-07  0.12138080E-07 -0.91924942E-08
 -0.17346108E-07  0.31700064E-08 -0.54189472E-08  0.13124063E-07 -0.15982090E-07
 -0.18053813E-07  0.72395656E-08  0.61353214E-08  0.56574053E-08  0.64199060E-09
 -0.14529661E-09 -0.37350745E-08 -0.91026506E-08 -0.10596464E-07 -0.11156425E-07
  0.15130669E-07  0.18429394E-08  0.52030819E-08  0.43432635E-08 -0.96520135E-08

  0.10483167E-07 -0.52663598E-09  0.80543633E-08  0.81834377E-08 -0.66042723E-08
 -0.60163632E-08 -0.58580504E-08 -0.58057555E-08  0.12402740E-07  0.28897260E-06
 -0.14795767E-06 -0.14863572E-06 -0.32477895E-06  0.47395327E-06  0.21587452E-06
 -0.27158823E-06  0.14438955E-07 -0.70349682E-07 -0.41131781E-06 -0.19586968E-06
  0.23335296E-06  0.21649652E-07 -0.83997458E-06  0.21882185E-06 -0.14363471E-06
 -0.14074095E-06  0.32341267E-06  0.34032624E-06  0.31681575E-06  0.81636136E-07
 -0.26624190E-06  0.39379034E-06  0.14384713E-06  0.22372010E-06 -0.16266396E-06
 -0.61794203E-06  0.76574823E-08  0.73036607E-08  0.10621728E-07 -0.36290631E-08
  0.64767681E-08 -0.95845777E-08 -0.11838757E-07 -0.69171167E-08  0.10154707E-07
  0.65856240E-07 -0.53597936E-06 -0.14106004E-06  0.23228919E-06  0.44059039E-06
 -0.20919997E-06  0.16721849E-06 -0.53436963E-07  0.21891321E-06 -0.60404522E-07
  0.87160770E-07 -0.18047711E-06  0.24359838E-06 -0.94661404E-07 -0.20258025E-06
  0.19336839E-06 -0.25597424E-06 -0.11411508E-06 -0.14850811E-07 -0.47087391E-07
 -0.11992998E-07  0.50172369E-08 -0.24153055E-07 -0.10220633E-07  0.12405811E-07
  0.78329768E-09  0.29518523E-07 -0.55712543E-08  0.16723100E-07  0.48825024E-08
 -0.51364377E-08  0.15218103E-07  0.39472150E-08 -0.26941709E-08 -0.20904884E-09
 -0.13518888E-07 -0.91225321E-08 -0.18094361E-07  0.52593320E-09  0.43667139E-08
 -0.38947023E-07 -0.12501970E-07  0.92396624E-08  0.79337151E-08  0.29668730E-06
  0.72503219E-07  0.63827391E-06 -0.18143102E-07  0.14458888E-06 -0.19910073E-06
  0.21422519E-06  0.63105188E-06 -0.22234751E-07  0.78798845E-06  0.32750030E-08
  0.27509337E-08 -0.10747725E-07 -0.10790179E-08 -0.42639198E-08 -0.21302716E-08
 -0.88509111E-09  0.39940514E-08  0.13381157E-07  0.15255434E-06  0.51170695E-06
 -0.11206398E-07  0.17864239E-06  0.34361674E-07 -0.16114360E-06 -0.20306058E-06
  0.14386721E-06  0.24788623E-06  0.83413562E-08 -0.35553576E-08  0.47717303E-08
 -0.64149424E-08  0.79134358E-08  0.27728839E-08  0.12930204E-07  0.16462147E-07
  0.12539475E-07  0.17993818E-06  0.11599861E-08 -0.25338655E-06 -0.12344025E-06
 -0.35273190E-07  0.11415397E-06  0.14331454E-06  0.35532510E-06 -0.44263726E-06
  0.17067050E-06 -0.36447630E-06 -0.24668560E-07  0.81555223E-07  0.33487862E-06
  0.12968555E-06 -0.33882217E-07 -0.36474342E-08 -0.12789731E-06  0.16228204E-06
 -0.23619163E-06 -0.55340976E-06 -0.47026867E-06 -0.12390559E-05  0.48298391E-08
 -0.29666769E-06  0.12635318E-06  0.11652660E-06 -0.22884499E-08 -0.12368934E-07
 -0.16418518E-07  0.17141478E-09 -0.99719786E-08  0.15651743E-08 -0.16693326E-07
 -0.72624302E-08 -0.22808235E-07 -0.34966075E-08 -0.32153937E-07 -0.80318903E-08
 -0.21470083E-08  0.60551401E-08 -0.63764807E-08  0.27843793E-09 -0.96010395E-10
  0.77815821E-08  0.11822475E-07  0.55844174E-08 -0.71710419E-08 -0.12348149E-07
  0.56118800E-09  0.25243773E-08  0.87355615E-08 -0.41590612E-08  0.16575069E-07

  0.29659386E-06 -0.15208158E-06  0.28434459E-06 -0.72577163E-06 -0.95137097E-07
  0.86001669E-07  0.15432738E-06  0.19428557E-07 -0.82668132E-07  0.16757724E-04
 -0.13790513E-05 -0.33584218E-05  0.14014200E-04 -0.26453295E-04 -0.11863505E-04
  0.11210016E-04  0.12014721E-04  0.86503737E-05  0.43746443E-04  0.74991147E-05
 -0.11658241E-04 -0.55528404E-05 -0.20408386E-05  0.10296388E-04  0.70483315E-06
  0.46384535E-05  0.43960725E-05  0.12624809E-04 -0.19660918E-05  0.12024756E-05
  0.40422542E-04 -0.15794470E-04 -0.11563691E-04  0.15896811E-04  0.15010489E-04
 -0.20013341E-05 -0.73921260E-07 -0.22637434E-06 -0.34089141E-06 -0.37921104E-06
  0.22020290E-06  0.11820038E-07  0.53898351E-07 -0.13756037E-06 -0.27183003E-06
  0.26057801E-04  0.33764955E-04 -0.24529937E-04  0.23529988E-04  0.75096304E-05
 -0.11871811E-04 -0.14898235E-04  0.76570135E-05  0.44671083E-05 -0.62242365E-05
  0.23051788E-05 -0.16091261E-06  0.51480355E-05 -0.19717346E-04 -0.40901932E-05
 -0.14524308E-04  0.15340707E-04  0.61547139E-06  0.19860578E-06 -0.47508737E-06
 -0.43479020E-06  0.12864411E-06 -0.29944765E-06 -0.17168909E-06 -0.56654850E-06
 -0.41803816E-07  0.13748790E-07 -0.21831339E-06 -0.14476622E-06 -0.33196955E-06
 -0.14237898E-06 -0.53313379E-06  0.12713614E-06  0.24393125E-06  0.17082884E-07
  0.15152283E-07  0.62121954E-06  0.22584511E-06  0.92248290E-06 -0.30071262E-07
  0.54197293E-06 -0.82152069E-06 -0.89138919E-07 -0.94021922E-06  0.72503219E-07
  0.20552407E-03  0.20690236E-04 -0.22500644E-04  0.89962617E-05 -0.16196623E-04
 -0.38999420E-06 -0.33014581E-05  0.12357700E-04 -0.48173738E-05  0.29068092E-06
  0.12745677E-06  0.28338917E-06  0.79451935E-07 -0.23164470E-06  0.21637311E-07
  0.39705038E-06  0.24466236E-06  0.26414633E-07  0.10855196E-04  0.57575757E-05
 -0.10504991E-04 -0.39170455E-04  0.28668626E-05  0.15858195E-04 -0.85860754E-05
  0.56976633E-05  0.18677468E-04 -0.85337861E-06 -0.15731647E-05 -0.21416631E-06
  0.24717031E-06 -0.22316086E-06 -0.30270920E-06  0.60689210E-07  0.88044166E-06
  0.45789071E-06 -0.37411505E-04 -0.86540113E-05 -0.13933074E-05  0.35120214E-05
  0.24571476E-04  0.12681387E-04  0.85744992E-05 -0.92532052E-05 -0.24107618E-04
  0.34197840E-05  0.16858889E-04 -0.14866224E-04  0.66221788E-05  0.54378407E-05
  0.18789347E-04  0.16604033E-05  0.12471788E-04 -0.47631798E-05  0.42092028E-04
  0.18023914E-04  0.14973210E-04 -0.18351472E-05 -0.22008795E-04  0.52754843E-05
 -0.74938821E-05  0.38552803E-05  0.20700245E-04 -0.97325774E-07  0.42624157E-06
 -0.22521455E-06  0.69333294E-06  0.12232997E-06 -0.44638632E-06  0.66815389E-06
  0.81787321E-07  0.35451755E-07  0.20835666E-08  0.37856401E-06 -0.16230113E-06
  0.37972961E-06 -0.25625140E-06 -0.39923673E-06  0.25092188E-06 -0.32633045E-06
 -0.26565156E-06 -0.13372869E-06  0.29907085E-06  0.43455075E-06 -0.70307346E-06
 -0.18194314E-06  0.84384551E-07 -0.37047278E-06 -0.10652790E-07  0.19244118E-06

 -0.10450791E-06  0.96548386E-07  0.39245105E-06  0.51741584E-08 -0.33682489E-06
 -0.11749169E-06 -0.37169485E-06  0.16482591E-06  0.11691106E-06  0.77924544E-06
  0.39429782E-04 -0.56942018E-05 -0.92751084E-06 -0.31189768E-04 -0.52785161E-05
 -0.18450503E-04  0.79421118E-05  0.54188033E-04  0.16521468E-04  0.41264823E-04
 -0.35133383E-05 -0.75299177E-05 -0.50337209E-04 -0.17251843E-06 -0.14519869E-04
 -0.13765052E-05  0.70998470E-06  0.21253215E-04  0.17471543E-04 -0.99198768E-05
 -0.41799686E-05  0.23460692E-04 -0.11026804E-04  0.23738713E-04  0.10373125E-04
 -0.53387289E-05 -0.52108222E-07 -0.30163667E-06  0.67111147E-07 -0.18377790E-06
  0.16588079E-05 -0.44876916E-07 -0.60878632E-06 -0.99429690E-07 -0.38143159E-06
 -0.51403027E-05 -0.41969115E-04  0.18204139E-04  0.13177038E-04  0.22123864E-04
 -0.92835171E-06  0.59044950E-05  0.10516696E-04 -0.71439918E-05 -0.30611757E-04
 -0.32536841E-04 -0.14599846E-04  0.17323411E-04 -0.39436859E-04  0.18921730E-05
 -0.47077852E-04 -0.11418794E-04 -0.21243314E-05  0.25187578E-06  0.80087603E-07
  0.99065667E-07  0.65106202E-07 -0.16560656E-06 -0.21717024E-06  0.90704154E-06
 -0.11203952E-06  0.46691490E-06  0.26326831E-06 -0.56979872E-06 -0.43139581E-07
 -0.73700600E-07 -0.13449078E-05  0.10598135E-06 -0.56774010E-06 -0.55288251E-07
  0.31504458E-06  0.16984753E-06  0.86341127E-06 -0.30997173E-07 -0.23465046E-06
  0.23925075E-06  0.11370844E-06 -0.96644123E-07  0.22392310E-06  0.63827391E-06
  0.20690236E-04  0.37338907E-03 -0.90990420E-05  0.11963239E-04 -0.37263057E-05
 -0.21702961E-06 -0.65230617E-05 -0.12472681E-04 -0.71675575E-06 -0.73483773E-06
  0.12348120E-05  0.18497061E-06 -0.18157540E-06 -0.60894638E-06 -0.88903435E-07
  0.12395937E-07 -0.32909157E-06 -0.45874504E-07 -0.46468066E-05  0.36372567E-05
 -0.38485343E-05  0.71045936E-05 -0.60454121E-04 -0.94109280E-06  0.11311187E-04
  0.63179408E-05  0.41569772E-06 -0.74059313E-06  0.82955277E-06  0.10686929E-05
  0.26029549E-06  0.12986794E-06  0.44082080E-06  0.12970390E-05 -0.30118377E-06
 -0.50615593E-06  0.47301171E-05  0.35213573E-04  0.14549016E-04  0.47595021E-05
  0.46130726E-04  0.14711734E-04  0.27408598E-04 -0.13629974E-04  0.87219539E-05
  0.44539757E-04  0.67303289E-04  0.93111158E-05  0.14142226E-04 -0.48230378E-04
  0.18219479E-04 -0.61453087E-04  0.70863155E-05  0.81652834E-05  0.27165705E-04
 -0.18723820E-05 -0.35707290E-05 -0.14571714E-05  0.93708810E-04 -0.88245343E-05
  0.20484722E-04  0.65734296E-06 -0.23496179E-04 -0.54432906E-06 -0.67528474E-06
  0.47666562E-07  0.18471999E-06  0.12045494E-05 -0.21070922E-06 -0.20061518E-06
  0.76313241E-07  0.10968114E-06 -0.26952211E-06  0.10285536E-05  0.82408035E-07
  0.18179673E-06 -0.11916338E-05  0.12271500E-06  0.17674328E-06 -0.60775579E-07
  0.59675947E-07  0.12674823E-06  0.15704075E-06 -0.95880669E-07 -0.84951468E-07
  0.42510657E-06  0.36692640E-07 -0.34710051E-06  0.70966519E-07  0.38509624E-08

 -0.22521154E-06  0.41775706E-06  0.56510041E-06  0.30454301E-07  0.71881600E-07
 -0.49617025E-07  0.13581853E-06 -0.38374629E-06 -0.21756663E-06  0.17275033E-06
  0.20764783E-04 -0.85101360E-05  0.29419343E-05 -0.58233736E-05 -0.21609898E-05
 -0.78341755E-05 -0.20765094E-04 -0.92707288E-05 -0.10267423E-04  0.26991583E-04
  0.30551834E-04  0.15963054E-04 -0.99563136E-06 -0.12357548E-04 -0.84116170E-06
 -0.17796492E-04  0.22974412E-06  0.77318069E-05  0.37222025E-05  0.26774112E-04
 -0.44058173E-05  0.70980103E-05 -0.34248343E-04 -0.39356220E-05 -0.99776988E-05
 -0.70148347E-05 -0.11142535E-06  0.22911336E-06 -0.23559690E-06 -0.34008957E-06
  0.20814374E-06 -0.48489673E-06  0.21712818E-06  0.23703089E-06 -0.58695537E-08
 -0.11317376E-04 -0.52716073E-05 -0.17172608E-04 -0.17509716E-05 -0.72381956E-05
 -0.98666741E-05  0.73785422E-05 -0.12704749E-04  0.47582106E-05  0.17999086E-04
  0.15441103E-04  0.13210015E-04  0.20603556E-04 -0.11109011E-04  0.62299058E-05
  0.95874391E-05 -0.77655249E-05 -0.91627217E-05 -0.47316434E-06 -0.84745030E-06
 -0.11366408E-06 -0.92553951E-07  0.13160764E-06  0.21588999E-06 -0.19800128E-06
 -0.89016237E-07  0.21055546E-06 -0.48975041E-06  0.85597258E-06 -0.57853885E-06
  0.13486875E-06 -0.79625469E-07 -0.19070687E-07 -0.11401971E-07 -0.16481313E-06
 -0.32235238E-06  0.65503577E-06  0.38855747E-06  0.25803088E-06 -0.38417889E-06
  0.14100505E-06 -0.45662573E-06  0.12574391E-06 -0.76485430E-06 -0.18143102E-07
 -0.22500644E-04 -0.90990420E-05  0.16409175E-03 -0.13506626E-04  0.11226740E-07
  0.14697658E-04 -0.22889034E-05 -0.88651187E-06  0.10922741E-04  0.53146634E-07
 -0.24742470E-06  0.14704179E-06  0.12430264E-06 -0.14478969E-06 -0.23032959E-06
  0.48238564E-07 -0.35268829E-06 -0.22754815E-07 -0.60868523E-05  0.16367638E-04
 -0.53621716E-05  0.15326759E-04 -0.10083765E-04  0.26691002E-05 -0.47511215E-06
 -0.22223821E-05  0.50199738E-05  0.48202278E-06  0.72162309E-06  0.91133748E-06
  0.24335998E-06 -0.10574923E-05  0.52137693E-06 -0.48392301E-06  0.28172589E-06
  0.79614240E-06  0.11067096E-04  0.56769431E-05 -0.10220979E-04 -0.38624180E-05
 -0.28856762E-04  0.30399603E-04 -0.42522939E-05  0.48611554E-04  0.12639213E-04
 -0.19770429E-04 -0.17367851E-04  0.81512031E-05  0.44308705E-04 -0.83661448E-05
  0.24992806E-04  0.33812996E-04  0.50179234E-05  0.28008539E-04 -0.38569426E-05
  0.32722226E-04 -0.40387336E-05 -0.11196613E-04  0.30384813E-05 -0.55229813E-06
  0.46102929E-05 -0.93000921E-05 -0.10314296E-04  0.51537678E-07 -0.32541413E-06
  0.43899361E-06  0.37578176E-07 -0.34921624E-06  0.22913028E-07 -0.16449362E-06
  0.18115864E-06 -0.22310389E-06  0.43434406E-06  0.16703608E-06  0.24749831E-06
 -0.44612644E-06  0.19756530E-06  0.62251842E-07 -0.12138932E-06  0.23372172E-06
 -0.96350204E-07  0.78193529E-07  0.15233259E-06 -0.96697459E-06 -0.92688935E-07
 -0.60144000E-06  0.36461868E-07 -0.11970132E-06 -0.32231307E-08  0.11782849E-06

  0.18954905E-06  0.21660128E-06  0.42838798E-06  0.49619470E-06 -0.53889772E-07
  0.25880416E-07  0.39446505E-06  0.21120074E-07  0.17271990E-06  0.59125986E-05
  0.74305714E-05  0.22348349E-05  0.44318967E-06 -0.56679329E-05  0.58295080E-05
 -0.84846194E-05  0.85124344E-05  0.43942492E-05  0.28732621E-04 -0.36679665E-05
 -0.32711014E-05 -0.19102376E-05 -0.15311253E-04  0.86331128E-05 -0.21006075E-05
  0.60156133E-05  0.72767184E-05 -0.84567139E-05 -0.83276696E-05 -0.76531522E-05
 -0.26779869E-05 -0.44332698E-05 -0.22462618E-04  0.64802173E-06 -0.76447472E-05
  0.19306171E-05  0.81801324E-07  0.40003698E-06  0.76619644E-07 -0.91683663E-06
  0.33048019E-06  0.45430317E-06 -0.33168811E-06 -0.50888812E-06 -0.27881291E-06
 -0.40814493E-05  0.48339961E-05 -0.14350088E-04  0.40657122E-04 -0.13310856E-04
 -0.35454252E-04  0.96237127E-05  0.82210109E-05  0.18101276E-04 -0.12506820E-04
  0.37583686E-05 -0.10904271E-04 -0.15176074E-04  0.10230725E-05  0.55810683E-05
  0.38452346E-05  0.10803204E-04  0.66871940E-05  0.12020372E-05  0.71446893E-07
 -0.46450270E-06  0.40914706E-06 -0.21791414E-06  0.10316384E-06 -0.37784585E-06
 -0.15885955E-06 -0.87722607E-09  0.89052894E-06  0.22584187E-06  0.27857564E-06
  0.17940712E-06 -0.25637491E-06  0.72753436E-07 -0.76662659E-07  0.44034635E-06
  0.15748362E-06  0.68591935E-06 -0.20882423E-06  0.32706145E-06  0.88882060E-06
  0.50156951E-06 -0.64086173E-06 -0.23769770E-06  0.43517510E-06  0.14458888E-06
  0.89962617E-05  0.11963239E-04 -0.13506626E-04  0.26927432E-03 -0.85611671E-04
 -0.54871869E-04  0.18150436E-04 -0.44042102E-04 -0.92524341E-05  0.64604838E-06
  0.22860889E-06  0.79520001E-07  0.16366719E-06 -0.13112350E-06  0.26676376E-06
  0.73036661E-07 -0.16261149E-06 -0.99281418E-07  0.23909633E-04 -0.73926135E-05
  0.32238909E-05  0.39058891E-05 -0.13497274E-04  0.11035375E-04  0.21821478E-05
  0.73743178E-05  0.25984978E-05 -0.21381758E-05 -0.89762011E-06  0.59741349E-06
 -0.48038922E-06  0.35574679E-06  0.11579500E-06 -0.14890580E-06  0.56874500E-06
 -0.91122234E-06  0.13692326E-04 -0.15929159E-04  0.64367993E-06  0.19195787E-04
 -0.18486762E-06 -0.16181200E-04  0.81472591E-05 -0.24065655E-04 -0.19047040E-04
 -0.25026531E-04  0.12931990E-04 -0.59341145E-05 -0.52025743E-04 -0.27365071E-05
  0.15418734E-04 -0.20944341E-04 -0.18694193E-04 -0.14034879E-04  0.11846752E-04
  0.33167658E-05 -0.92053410E-05  0.19595516E-04 -0.87788560E-05  0.90659504E-05
 -0.30653575E-04  0.16322496E-04  0.12108538E-04  0.67789887E-07  0.22553897E-07
 -0.40513506E-06 -0.12368959E-05  0.49336863E-06  0.32533420E-06  0.23582492E-06
  0.71663849E-08  0.19315094E-06  0.19110815E-06 -0.29088840E-06  0.27661188E-06
  0.51737820E-06 -0.21945924E-08  0.30229755E-06 -0.70206467E-07  0.12253323E-06
 -0.26663514E-06  0.23997261E-06  0.14801239E-06 -0.37848861E-06 -0.92985138E-07
  0.51160602E-06  0.76120923E-07  0.29635083E-06 -0.12049292E-06  0.21497659E-06

  0.29484885E-06 -0.79386248E-06  0.18287210E-06  0.13051720E-06  0.50959377E-06
 -0.98955734E-07 -0.33744644E-06  0.11688086E-06  0.50521000E-07  0.16366370E-04
  0.77859813E-05 -0.97902513E-05 -0.81274137E-05  0.89988814E-05  0.11488726E-04
 -0.26901922E-05 -0.66843408E-05 -0.24520243E-04 -0.79632669E-05 -0.37813370E-04
  0.34379583E-05 -0.81589200E-05 -0.66714762E-04 -0.27873106E-05 -0.29417322E-04
  0.10025781E-04 -0.85320508E-05  0.89842082E-05  0.38280726E-04  0.85413108E-05
 -0.17075005E-04  0.11447576E-04  0.16841168E-04 -0.25583470E-04 -0.58841206E-05
 -0.56135060E-05  0.93521296E-07 -0.81070109E-06  0.50847040E-07  0.50133734E-06
  0.15432210E-06  0.53920920E-07 -0.18467457E-06  0.19894989E-06 -0.13902814E-06
 -0.61160039E-06 -0.92857332E-05  0.22796187E-04 -0.13486695E-05 -0.70745142E-04
  0.12266124E-04 -0.18019263E-04  0.29820682E-05  0.15774229E-04 -0.93230959E-05
 -0.64067789E-04  0.13112414E-04 -0.23738217E-05  0.42667854E-04  0.46023110E-05
  0.68873857E-05  0.97199286E-05  0.19128620E-04  0.45401085E-06 -0.12953922E-06
  0.66885453E-06 -0.30445911E-06  0.10388909E-05 -0.25724640E-07  0.33248337E-06
  0.37663536E-06 -0.12251668E-06 -0.73020749E-09 -0.88175702E-06 -0.11801274E-05
  0.10636425E-06  0.16164840E-05 -0.64298545E-07 -0.39211584E-07  0.20074349E-06
  0.11878765E-06 -0.79002055E-06 -0.53187171E-06 -0.13212586E-06  0.69308238E-06
 -0.34986610E-06  0.17681615E-06 -0.18182896E-06  0.71135764E-06 -0.19910073E-06
 -0.16196623E-04 -0.37263057E-05  0.11226740E-07 -0.85611671E-04  0.48980562E-03
 -0.56429470E-04  0.30826281E-04  0.93906358E-05  0.14964790E-04 -0.65012717E-07
 -0.10330404E-05  0.20091213E-06 -0.18830013E-06  0.10387470E-05 -0.12107224E-06
 -0.28736742E-06  0.34704443E-06 -0.30116032E-06 -0.13877351E-05  0.12057224E-04
  0.88699541E-05 -0.55309295E-05  0.12442108E-04 -0.14910361E-06  0.62470320E-05
 -0.10470720E-04  0.27280720E-05  0.14312836E-05  0.26287730E-06  0.30346372E-06
 -0.32102446E-06 -0.12550124E-05  0.36391747E-06  0.67867941E-07 -0.11293690E-06
  0.93807635E-06  0.77583169E-05  0.90338600E-05 -0.39902628E-05  0.48148567E-05
  0.47604405E-04 -0.16090373E-04  0.48525854E-04  0.16347752E-05  0.87952711E-05
  0.14672113E-04  0.55828833E-04 -0.41251583E-05  0.66568464E-05 -0.45064583E-04
 -0.29855178E-05 -0.46928155E-04  0.42107685E-04  0.34736800E-04 -0.27294790E-04
 -0.22510827E-04 -0.30566029E-05  0.60823047E-07  0.68980126E-04 -0.10567160E-04
 -0.10317467E-04  0.14115101E-04 -0.12577561E-04  0.14896914E-07 -0.18944451E-05
  0.44238296E-06  0.10643098E-06 -0.12727153E-05  0.36813818E-06  0.26723152E-06
  0.12184023E-06  0.13231950E-06 -0.39301675E-06  0.64271908E-06 -0.30384800E-06
 -0.25861167E-06  0.11493124E-05  0.37080261E-07 -0.46683056E-07  0.21494217E-06
  0.25489910E-06  0.82319618E-06 -0.19750728E-05  0.58245358E-06  0.50199724E-06
 -0.97771360E-06  0.17201928E-06 -0.34253876E-06  0.35236325E-06  0.39176885E-06

  0.65021642E-07  0.87357839E-07  0.19457496E-06 -0.90953091E-07 -0.40217237E-07
 -0.23268710E-06 -0.44026583E-08  0.95990581E-08  0.29656216E-07 -0.50867329E-05
  0.36284894E-05 -0.39817063E-05 -0.61427960E-06  0.76544636E-05 -0.86171078E-05
  0.57055370E-05  0.91456176E-06 -0.15342852E-05 -0.10299289E-04  0.41233881E-05
  0.18786045E-04  0.92587079E-05 -0.18175218E-05  0.70682349E-05  0.10191231E-04
 -0.18918389E-04 -0.17797626E-04 -0.31880720E-05 -0.40365760E-05 -0.95482092E-05
 -0.68089444E-05  0.14311069E-04 -0.13758232E-04 -0.21249623E-07  0.72055725E-06
 -0.16989902E-05  0.17912699E-06 -0.51211450E-06  0.14893349E-06  0.61065354E-09
  0.42383175E-06 -0.35327622E-06  0.16947714E-06  0.13355081E-06 -0.27127204E-06
  0.16927848E-05 -0.99672379E-05 -0.21842051E-05 -0.14321704E-04  0.26195910E-04
  0.12622566E-04  0.46081049E-05  0.38222282E-06 -0.11812265E-04  0.27971512E-05
  0.19386267E-05 -0.32020683E-05  0.25183856E-04 -0.14625416E-04 -0.22479233E-04
  0.30057688E-05 -0.61648960E-05 -0.12522689E-04 -0.32797090E-07 -0.60724417E-06
  0.19787209E-07  0.84531266E-07 -0.51874985E-06  0.40548924E-07  0.17851311E-06
  0.16315729E-06  0.65918257E-07  0.33149965E-06 -0.94102339E-07  0.13480399E-06
 -0.76695653E-07 -0.12462801E-06 -0.15199536E-06 -0.45994832E-07 -0.10074623E-06
  0.10440408E-07  0.71986922E-06  0.39397359E-06 -0.81315076E-06 -0.13066253E-05
  0.10434668E-06  0.87643756E-06  0.16486715E-06 -0.41934709E-06  0.21422519E-06
 -0.38999420E-06 -0.21702961E-06  0.14697658E-04 -0.54871869E-04 -0.56429470E-04
  0.16282558E-03 -0.53718375E-05 -0.28269816E-04  0.43547342E-05  0.14955153E-06
 -0.23807015E-06 -0.51217692E-06  0.98945920E-07 -0.18932879E-06  0.82429653E-07
  0.25376071E-06 -0.44408898E-07  0.39065349E-06  0.44227545E-05  0.85253798E-05
 -0.15090055E-04  0.13457799E-04  0.37428732E-05 -0.16441825E-04 -0.13228063E-05
 -0.11425456E-05  0.10178416E-06  0.11910218E-06  0.46513718E-06  0.97140017E-06
 -0.54417910E-06 -0.11133141E-06  0.27553542E-07 -0.28807694E-06  0.17146128E-06
  0.41047845E-06  0.41990789E-05 -0.23716773E-05 -0.20167091E-04 -0.12059790E-04
 -0.94300697E-05  0.23552665E-04  0.61099144E-07  0.18114869E-04  0.13922908E-04
 -0.12715869E-04  0.14100046E-05 -0.15295628E-04  0.69480869E-05  0.21473232E-04
  0.68658708E-06  0.16390371E-04 -0.11710653E-05  0.78581315E-05  0.18912005E-04
  0.88188471E-05  0.12896723E-04  0.21767109E-04  0.57781285E-06 -0.26768384E-04
  0.13526423E-04 -0.15838229E-04 -0.12794394E-04  0.38639369E-06 -0.57849268E-07
 -0.42345355E-06  0.24665011E-06  0.15755663E-07 -0.42197170E-06 -0.42636554E-07
 -0.42319118E-07 -0.36674770E-06  0.22582243E-06 -0.33025700E-06  0.82410293E-06
  0.35089207E-07 -0.31477031E-06 -0.32011526E-06  0.26846350E-06 -0.27903317E-06
  0.24516169E-06 -0.25291966E-06  0.19564341E-07 -0.36970103E-06 -0.43338558E-08
 -0.93537816E-07 -0.15113072E-06 -0.83049889E-07 -0.22339736E-06 -0.21529314E-06

 -0.57619875E-06 -0.71668372E-07 -0.98543576E-07 -0.40731750E-06 -0.60246215E-07
  0.15527666E-06 -0.10810358E-06 -0.11292491E-06  0.18006716E-06 -0.64498721E-05
  0.28906634E-05 -0.24718736E-04  0.17727442E-04 -0.10610445E-04 -0.28023037E-05
  0.15350473E-05 -0.68677646E-05 -0.78376144E-05  0.88417406E-05 -0.79973892E-05
  0.43079359E-05  0.68310591E-05 -0.19849439E-04  0.27943484E-05 -0.84826650E-06
 -0.70185540E-05 -0.55499885E-06  0.71318869E-06  0.10168766E-04  0.12788999E-04
  0.66398375E-05 -0.14676804E-04  0.60754316E-05 -0.13703312E-04 -0.12681216E-05
 -0.20715207E-04 -0.38450990E-06  0.58447783E-06  0.34256516E-06 -0.38343778E-06
  0.45221232E-06  0.11896086E-06  0.66538877E-07 -0.77300217E-07  0.26560669E-06
  0.79711099E-05 -0.62659363E-05  0.52888237E-06 -0.41835028E-05 -0.13509547E-05
 -0.10656262E-05  0.31728368E-04 -0.36940323E-05 -0.12331957E-04 -0.81857900E-05
  0.15223280E-04 -0.46103852E-06  0.66197047E-05  0.75999636E-05  0.23241699E-05
 -0.49147779E-05  0.64857957E-05  0.12926256E-04  0.20155190E-06  0.29949014E-06
 -0.17804465E-06  0.28890436E-06  0.53791166E-06 -0.21213002E-06 -0.14832904E-06
  0.16753335E-06  0.28461873E-09  0.58120773E-06  0.15706755E-06 -0.60411083E-06
  0.49887053E-07 -0.62688994E-06 -0.56885597E-07  0.11488819E-05  0.11222317E-06
  0.51395208E-06  0.83170981E-07  0.50379111E-06  0.18058748E-07  0.63604327E-08
  0.27827632E-06 -0.10300313E-06  0.55624257E-06  0.98274431E-09  0.63105188E-06
 -0.33014581E-05 -0.65230617E-05 -0.22889034E-05  0.18150436E-04  0.30826281E-04
 -0.53718375E-05  0.26618419E-03 -0.60769437E-06 -0.42027549E-04  0.12800358E-06
 -0.95169933E-06 -0.29902933E-06 -0.27826030E-06  0.69592841E-07  0.89110677E-07
  0.47574895E-07  0.11970014E-06  0.16013218E-06  0.14783889E-04  0.50877097E-06
  0.16765903E-05 -0.51791194E-06 -0.38946628E-04  0.92657794E-05 -0.41409625E-05
 -0.41498577E-05  0.39794798E-05  0.90305630E-07 -0.94310587E-06  0.41720157E-06
 -0.14604286E-07  0.52770853E-06 -0.27013285E-06 -0.20893873E-06  0.18089465E-06
  0.46890628E-08  0.29956270E-05 -0.17127631E-05 -0.10394442E-04 -0.16786856E-04
 -0.26815150E-05  0.12144747E-04  0.22663858E-04  0.83731362E-06 -0.23162743E-05
 -0.21146933E-04  0.14866076E-04  0.16585772E-04 -0.30867655E-04  0.26441208E-04
 -0.22870474E-05 -0.19309705E-05  0.19420261E-05  0.21163807E-04 -0.20197570E-04
 -0.17410679E-04  0.64027497E-05  0.18703751E-05  0.16797784E-05  0.41190483E-05
 -0.14797348E-04  0.36611952E-05 -0.16679007E-05 -0.12161887E-06 -0.72322338E-06
 -0.33123862E-06  0.17796200E-06  0.53256983E-07 -0.23897227E-07 -0.55915813E-06
  0.11918629E-06 -0.17148401E-06 -0.92860817E-06 -0.39020917E-06 -0.42113087E-06
  0.31558822E-06 -0.26111450E-06  0.18213841E-06 -0.40694640E-06  0.20307358E-06
  0.37850961E-07 -0.42634487E-07 -0.16199203E-06 -0.39327942E-06 -0.17499930E-07
 -0.71482767E-06 -0.54172971E-07 -0.31002427E-06  0.23850063E-07  0.38883975E-06

 -0.28347576E-06 -0.83412231E-07  0.53522384E-07 -0.55551215E-06 -0.17644073E-06
 -0.23133398E-07 -0.18123032E-06 -0.27882511E-06 -0.32152282E-06 -0.53195389E-05
 -0.30080213E-07 -0.38279789E-06  0.25502463E-05  0.81178899E-05 -0.99709747E-05
  0.10139942E-04 -0.38447909E-05 -0.37480969E-05  0.16521365E-04 -0.65746565E-05
  0.40942253E-05 -0.10369934E-04  0.50565590E-05  0.13085971E-04 -0.92347980E-05
  0.10154124E-05  0.14255296E-04 -0.89737425E-05  0.17974025E-05  0.88514978E-05
 -0.25243561E-05 -0.42726791E-06  0.16155904E-04  0.42425249E-05  0.22296110E-05
  0.29820558E-05 -0.66069423E-06  0.30172553E-06 -0.15290693E-06  0.76306423E-07
 -0.22777105E-06  0.61903198E-07  0.13321575E-06  0.16683181E-06  0.57925571E-06
  0.53061562E-05  0.14915516E-04 -0.60714082E-06 -0.94423613E-05  0.42143873E-05
  0.12950746E-04 -0.12966390E-04 -0.10405711E-04  0.59293927E-05 -0.24700913E-05
 -0.66304620E-05  0.85578427E-06  0.43558895E-05  0.10399524E-04  0.39817440E-05
 -0.25470176E-06 -0.25374930E-04  0.36107077E-05 -0.14230213E-06  0.78804305E-06
  0.11656869E-06  0.22086361E-06 -0.12805510E-06  0.15900097E-06 -0.29836468E-06
  0.52232498E-07 -0.16949162E-06 -0.62147955E-06  0.13622835E-06 -0.29929633E-06
 -0.60933872E-06  0.26759319E-06 -0.20665289E-07  0.29407281E-06 -0.23795978E-06
  0.25658077E-07  0.10600150E-05  0.91981904E-08  0.15441688E-05  0.81135895E-07
  0.43324621E-06 -0.65526160E-06  0.10860943E-06 -0.12599087E-05 -0.22234751E-07
  0.12357700E-04 -0.12472681E-04 -0.88651187E-06 -0.44042102E-04  0.93906358E-05
 -0.28269816E-04 -0.60769437E-06  0.12617903E-03  0.43277708E-05 -0.30590013E-07
  0.10982013E-06 -0.10912231E-06  0.27938984E-06 -0.16783330E-06 -0.30632627E-06
  0.15207875E-06 -0.37576978E-07  0.91961032E-07  0.20074733E-05 -0.91152690E-06
  0.71643808E-05 -0.30910913E-04  0.20714620E-04 -0.59252687E-06 -0.56510867E-06
 -0.74914642E-05 -0.35939670E-05  0.40126848E-06 -0.17434304E-06 -0.23517846E-06
 -0.69394598E-06  0.86005310E-09 -0.34024660E-06 -0.58908173E-06 -0.44267496E-06
  0.23061854E-06  0.10292285E-04  0.60877325E-05 -0.14369207E-04 -0.78978379E-05
  0.11790726E-04  0.65145630E-05 -0.13891050E-05 -0.17335077E-04 -0.19143807E-05
  0.46481010E-07  0.24561090E-05  0.10302769E-04 -0.29776860E-05 -0.10179544E-04
 -0.87003815E-05 -0.18102277E-04 -0.15884414E-04  0.35648148E-06  0.64047069E-05
  0.37868045E-05  0.32280454E-05 -0.72383429E-05  0.14707735E-04 -0.28297250E-05
  0.12663406E-04 -0.61810374E-05 -0.34400048E-05  0.47735796E-07  0.40309587E-06
  0.20194918E-06  0.28420052E-06 -0.16918137E-06 -0.20457245E-06  0.13406258E-07
  0.46442676E-07  0.29115993E-06 -0.20520030E-06 -0.18140934E-06 -0.43482769E-06
 -0.48380341E-06 -0.86528361E-07 -0.39765790E-06  0.10497102E-06 -0.31098581E-06
  0.17660198E-06 -0.70089742E-07  0.37037963E-06 -0.81692207E-07 -0.20293225E-06
 -0.29092424E-06 -0.27458315E-07 -0.11138399E-07 -0.56115074E-07  0.13874093E-06

 -0.15752920E-06 -0.77039105E-06  0.56364423E-06  0.25179423E-06 -0.27555924E-06
 -0.53513790E-07 -0.19843024E-06 -0.62617545E-07  0.21450909E-07  0.53385730E-05
 -0.30740334E-04 -0.12791893E-05 -0.74961874E-05  0.19417279E-04  0.22056382E-06
 -0.80478617E-05 -0.34459323E-05  0.85265898E-05 -0.10282789E-04  0.10777368E-04
 -0.35615060E-05 -0.17291699E-05 -0.11598798E-04  0.50408757E-05 -0.25333170E-05
  0.98575716E-05 -0.22273158E-04 -0.16119918E-04 -0.16021212E-04  0.51074700E-05
 -0.19441157E-04  0.27990720E-04 -0.13193831E-04  0.90363900E-05  0.80577192E-05
  0.28148982E-04 -0.78009381E-07  0.15765253E-06  0.60977366E-06 -0.81398210E-07
 -0.40671347E-06  0.14234366E-06 -0.37567263E-06  0.49441089E-06 -0.76796923E-06
  0.20225747E-05 -0.90997759E-05  0.89682116E-05  0.65506576E-05  0.45063195E-05
  0.59545143E-05  0.14037842E-04 -0.95570628E-05  0.83459105E-05  0.30314782E-04
  0.24775248E-04  0.13135496E-04 -0.22741702E-04 -0.53825269E-05  0.10876847E-04
 -0.74434710E-05 -0.66512381E-05  0.65060158E-05 -0.24271395E-06  0.57532797E-06
  0.79983120E-08 -0.39251544E-06  0.33934287E-06 -0.57005341E-07  0.57696490E-06
  0.34490329E-06  0.39665537E-06 -0.17722579E-06 -0.71673167E-06 -0.17239346E-06
  0.78472878E-08  0.60639442E-06 -0.24633226E-06  0.96371900E-07  0.31029860E-06
  0.33154014E-06  0.79243927E-08 -0.14520523E-08 -0.44297287E-06  0.44368662E-07
 -0.45354043E-06  0.49495902E-06  0.61417556E-06  0.85353294E-07  0.78798845E-06
 -0.48173738E-05 -0.71675575E-06  0.10922741E-04 -0.92524341E-05  0.14964790E-04
  0.43547342E-05 -0.42027549E-04  0.43277708E-05  0.23232881E-03 -0.78252724E-06
 -0.10628347E-06  0.58723282E-06  0.22669855E-06  0.16107812E-06 -0.25336116E-06
  0.12807565E-06 -0.64213686E-07 -0.26580918E-06  0.59050521E-05  0.13141432E-04
  0.46375419E-05  0.41918869E-06  0.61384085E-05 -0.68099275E-05  0.13694964E-04
  0.38445849E-05  0.35631537E-05  0.62904094E-06  0.42634995E-06 -0.28932831E-08
 -0.44839919E-06 -0.71756152E-06  0.78468501E-06 -0.60757643E-06  0.74462098E-07
  0.47157373E-06 -0.17224080E-05  0.13330322E-04  0.20098222E-04  0.87184982E-05
  0.23588402E-04 -0.13338398E-04  0.76906798E-05  0.12734249E-04  0.53606468E-05
  0.21852579E-04 -0.18469534E-04 -0.57918216E-05  0.10458751E-04 -0.23025783E-04
  0.59773748E-06 -0.11192653E-04 -0.12698987E-04 -0.14017791E-05  0.18119984E-04
  0.18894417E-04  0.14050704E-04 -0.13841995E-04 -0.24991010E-04  0.83162955E-05
  0.13235257E-04  0.13649798E-04 -0.80341249E-05  0.24197364E-06 -0.44231040E-06
  0.60807778E-06 -0.31715175E-07 -0.40528594E-06  0.23465807E-07  0.23308050E-07
 -0.30770536E-06  0.21229684E-06  0.81389181E-07  0.48980100E-06  0.15545902E-06
  0.14947478E-06  0.44115396E-06 -0.10610327E-06 -0.38700664E-06 -0.37229278E-06
 -0.16509312E-07 -0.69102409E-07 -0.33282483E-06  0.32042854E-06 -0.21411709E-06
  0.98228435E-06  0.77533396E-08 -0.13380559E-07 -0.29641505E-07  0.75234526E-07

  0.48161301E-07  0.42538765E-07  0.13482334E-07 -0.48367205E-07  0.36981595E-08
  0.26223821E-07  0.25155360E-07  0.21234953E-07  0.54802653E-08  0.35297988E-06
 -0.34940765E-07 -0.12246833E-05 -0.19285667E-05  0.18206586E-05  0.15803598E-06
 -0.11697630E-05 -0.24518053E-06  0.60777638E-06  0.62241203E-06 -0.91897066E-06
  0.25753376E-06  0.11031934E-05 -0.12761123E-05  0.65336752E-06 -0.14141972E-05
  0.45288654E-06 -0.82694310E-07 -0.55053803E-06 -0.11834678E-08 -0.13021264E-06
 -0.20397693E-06 -0.61012608E-06  0.14862462E-06  0.59490992E-06 -0.12558301E-05
  0.14496207E-06 -0.31893588E-07  0.18710145E-07 -0.36485789E-07 -0.31317919E-07
  0.40099118E-07 -0.45742711E-08  0.20350918E-08 -0.18783216E-07 -0.23764155E-07
  0.43967472E-06 -0.70430522E-06 -0.69099361E-06  0.34662154E-06 -0.10104386E-05
  0.25426479E-06  0.62555311E-06 -0.41823676E-06 -0.45095293E-06 -0.89856363E-06
  0.92070351E-06  0.24293979E-06  0.10764354E-05  0.20197447E-06 -0.48904715E-06
 -0.89082410E-06  0.22687721E-06 -0.37741382E-07  0.43164693E-07 -0.34938182E-08
  0.25812505E-08  0.44462816E-07 -0.15457576E-07  0.27408334E-08 -0.60422404E-07
  0.63825305E-08  0.10100748E-07 -0.29518278E-08  0.20751588E-07  0.15777614E-08
  0.14404739E-07 -0.61308379E-08  0.11952788E-07  0.55006994E-08 -0.87581897E-08
 -0.32490596E-07 -0.12579382E-07  0.35135333E-07  0.24228223E-07  0.36384708E-07
  0.32889920E-07  0.16812081E-08  0.33097170E-07 -0.76899811E-08  0.32750030E-08
  0.29068092E-06 -0.73483773E-06  0.53146634E-07  0.64604838E-06 -0.65012717E-07
  0.14955153E-06  0.12800358E-06 -0.30590013E-07 -0.78252724E-06  0.10504429E-05
  0.90411529E-07  0.33974406E-08  0.11123731E-06 -0.21777367E-07 -0.37681484E-07
  0.78996843E-07  0.41205062E-07 -0.30590511E-08  0.26413057E-05  0.13559664E-05
  0.82094195E-06 -0.39709671E-05  0.10803873E-05  0.19379552E-05 -0.43754411E-05
 -0.15757251E-05 -0.55105782E-06 -0.90015250E-07 -0.19222068E-07  0.30174087E-07
  0.15116925E-06 -0.21453464E-07  0.84100991E-08  0.26604651E-07  0.62842454E-07
  0.53662523E-08 -0.17574241E-05 -0.76245765E-06 -0.14316725E-06 -0.25907117E-05
  0.94785287E-06 -0.25491003E-06 -0.93745699E-06  0.81060459E-06 -0.92715882E-07
 -0.71148746E-07 -0.44282468E-06  0.14546599E-06  0.98854997E-06 -0.65928413E-06
  0.37666418E-06  0.43156654E-06  0.62911683E-06 -0.98005593E-07  0.40182175E-06
  0.23819008E-06  0.14690639E-06  0.59211995E-06  0.11340802E-05 -0.23367838E-06
  0.15428035E-05 -0.14114125E-05 -0.21859915E-06  0.99231315E-08 -0.12505947E-07
 -0.22299785E-07  0.40025422E-07  0.41796618E-07 -0.13017887E-07 -0.43906400E-07
  0.12075148E-08 -0.79352253E-08 -0.37737074E-07 -0.60241868E-07 -0.70050672E-08
  0.36967629E-07  0.31606009E-07  0.53257889E-08 -0.39325190E-07  0.75753141E-08
 -0.15949259E-07 -0.49602842E-07  0.32907115E-07  0.10406737E-07 -0.41258654E-08
  0.12170021E-07  0.18054213E-07 -0.29591691E-07 -0.54584065E-08 -0.26501344E-09

  0.24302605E-07 -0.76424849E-07  0.36891898E-07 -0.26120882E-07  0.69357179E-07
  0.20361191E-07  0.93205696E-08  0.16761100E-07  0.30137734E-08 -0.99368300E-06
 -0.11337096E-05 -0.53925287E-06 -0.76976247E-06  0.70524045E-06 -0.12230673E-06
  0.34506348E-07  0.34521219E-06  0.16056937E-05 -0.59831282E-07  0.53308385E-06
 -0.84003139E-08 -0.14510773E-05 -0.61605511E-06  0.44920504E-06  0.27038317E-06
 -0.23517565E-06  0.29902425E-06 -0.91876230E-06 -0.63642653E-06  0.84007409E-06
 -0.19401828E-05  0.17384058E-05  0.29884872E-06 -0.17422569E-06  0.15359302E-06
  0.59047240E-06 -0.79311122E-08  0.85325069E-07 -0.77715882E-08 -0.55969925E-08
 -0.10647643E-07 -0.99211804E-08 -0.55832287E-07  0.72185672E-08 -0.49966177E-07
  0.12930213E-05 -0.29080516E-06 -0.23418357E-06  0.35768786E-06 -0.28701508E-05
  0.73335520E-06 -0.87613084E-07 -0.32539671E-06 -0.14320604E-06  0.33694492E-07
 -0.20199880E-06 -0.33089123E-06  0.62396037E-06  0.17332459E-05 -0.62197215E-06
  0.18907579E-05 -0.58836957E-06 -0.62930838E-06  0.66864673E-08  0.87159000E-07
  0.14243857E-07 -0.32422837E-08  0.78695363E-08  0.11019657E-07  0.60181613E-08
  0.57025986E-09 -0.16836338E-07  0.51461409E-08  0.11936734E-07 -0.83203760E-08
 -0.10929043E-07  0.36748029E-07  0.18945584E-08 -0.17888236E-07  0.19897937E-07
  0.28534543E-07 -0.18931933E-07  0.29537776E-07  0.30324847E-07 -0.11799025E-07
  0.39111742E-07  0.55034830E-08 -0.18596151E-07 -0.15082262E-07  0.27509337E-08
  0.12745677E-06  0.12348120E-05 -0.24742470E-06  0.22860889E-06 -0.10330404E-05
 -0.23807015E-06 -0.95169933E-06  0.10982013E-06 -0.10628347E-06  0.90411529E-07
  0.13144493E-05 -0.31076888E-07  0.86879712E-08 -0.36009904E-07 -0.19544776E-07
  0.13695745E-07  0.20025751E-08  0.24392465E-07  0.59876575E-06 -0.22253214E-05
  0.59294338E-06 -0.44978620E-05  0.27503929E-05  0.62785550E-06 -0.10664920E-05
 -0.13497219E-05 -0.11985047E-05 -0.12939621E-06 -0.16064931E-06 -0.44339768E-07
  0.15392787E-06 -0.25671960E-08 -0.25440568E-07  0.12818180E-06 -0.17678205E-07
  0.19454968E-08 -0.23299271E-05  0.66979931E-06 -0.16252446E-05 -0.43971897E-06
  0.40017428E-05 -0.41681587E-06  0.41941505E-06  0.21817152E-06  0.19030595E-06
  0.29403123E-05  0.13495652E-05  0.91464483E-06 -0.75577116E-06 -0.42241697E-05
 -0.17440961E-07 -0.33572548E-05 -0.15754962E-05 -0.24711545E-05  0.18874823E-05
 -0.74997919E-06  0.29872531E-07 -0.14887111E-06  0.61095714E-06 -0.51030101E-06
 -0.16793256E-05  0.57323726E-06 -0.47688624E-06  0.25436885E-07 -0.50858567E-07
 -0.52270693E-08  0.29468532E-07  0.11597000E-07  0.38660610E-07  0.40987236E-07
 -0.80549218E-08  0.13936337E-07  0.69128094E-09  0.38995304E-07  0.46510266E-08
  0.26908504E-07 -0.87189686E-08 -0.22241304E-07 -0.25909623E-07 -0.12136389E-07
 -0.27993077E-07  0.54505097E-08 -0.37144326E-07  0.36442538E-07  0.15810022E-07
 -0.36700602E-07  0.12097585E-07  0.45177365E-08  0.20466381E-07  0.84389028E-09

 -0.26481325E-07  0.34505375E-08  0.14966231E-07  0.11935096E-07  0.13804452E-08
  0.20185220E-07  0.90158271E-08  0.21675590E-07 -0.15073401E-07  0.95027002E-06
 -0.92140373E-07  0.42126725E-06  0.62099989E-07 -0.40307387E-06  0.24081588E-06
 -0.31376542E-06 -0.10922480E-06  0.50232479E-06  0.36983538E-06  0.85594934E-07
 -0.16962441E-06 -0.81329179E-06 -0.19840721E-06  0.53100003E-06  0.48555052E-06
 -0.61868547E-07  0.32807592E-06 -0.29547885E-06  0.92463251E-07  0.18309055E-06
  0.53143197E-06 -0.22427801E-06  0.10723144E-05 -0.24653491E-06 -0.57700532E-06
 -0.96624732E-07 -0.97482419E-08  0.66980008E-08  0.20968969E-07  0.10541041E-07
 -0.30090278E-08 -0.22311849E-07  0.52342689E-08 -0.12404086E-07  0.19070966E-07
 -0.17994752E-06  0.15126170E-06  0.42933328E-06  0.57488937E-07 -0.28964198E-06
  0.99740556E-07  0.30536339E-06  0.15477862E-06  0.14101757E-06  0.20924267E-06
 -0.22361623E-07  0.41807368E-06 -0.74008297E-06  0.22769648E-06  0.30205213E-06
 -0.85863245E-07  0.67660328E-06 -0.15107835E-06  0.16828722E-08  0.97310054E-08
  0.26933661E-07 -0.23318111E-07  0.12846857E-07  0.82241558E-08  0.29350603E-08
 -0.14270455E-07 -0.14883628E-07  0.45336350E-08  0.46211443E-08  0.90999219E-08
  0.10688552E-07  0.70899661E-08  0.46913384E-08  0.21191216E-07 -0.24284684E-08
 -0.97634002E-08 -0.15383899E-09 -0.15506868E-07  0.37326779E-07  0.13417473E-07
 -0.25431470E-08  0.14826454E-07 -0.48902961E-08  0.17277291E-07 -0.10747725E-07
  0.28338917E-06  0.18497061E-06  0.14704179E-06  0.79520001E-07  0.20091213E-06
 -0.51217692E-06 -0.29902933E-06 -0.10912231E-06  0.58723282E-06  0.33974406E-08
 -0.31076888E-07  0.51383577E-06  0.74694253E-09 -0.16176523E-07  0.36734849E-08
  0.17808389E-07  0.24294372E-07  0.22616291E-07  0.10045695E-05 -0.72042115E-06
 -0.35595259E-06 -0.63420209E-06  0.36731120E-06  0.64851552E-06 -0.47615103E-06
  0.12737676E-05  0.62467949E-06  0.10013317E-07  0.56378256E-09 -0.23568116E-07
  0.17652674E-07 -0.99207461E-08  0.13089224E-07 -0.33820449E-07 -0.71775927E-07
 -0.51669241E-07  0.71864491E-07 -0.27224202E-06 -0.23700755E-06  0.35948607E-06
  0.44794548E-06 -0.28444227E-06  0.79977343E-06 -0.18016668E-06 -0.39463707E-06
 -0.36705627E-06  0.54452520E-06 -0.25947923E-06  0.23824972E-05 -0.16550550E-06
 -0.61085194E-06  0.14529965E-05  0.28747530E-06  0.72326999E-06  0.87018913E-08
 -0.14781734E-06  0.22813939E-06  0.89026581E-06  0.46654353E-06 -0.28134628E-06
  0.39982855E-06 -0.50865823E-06  0.12223148E-07  0.10493881E-08  0.20063778E-07
  0.11495652E-07  0.40246752E-08  0.22930764E-08  0.23157921E-08  0.13262026E-07
  0.20337752E-07  0.33215881E-07  0.13897652E-07  0.20949348E-07  0.93779532E-08
  0.16740445E-07  0.30296656E-08 -0.15025073E-07  0.29439923E-08  0.15353955E-08
  0.14575975E-07 -0.16300813E-07 -0.18605484E-07 -0.71104988E-08  0.24659077E-08
 -0.15147224E-07  0.10830340E-07 -0.46189358E-08 -0.68907964E-08  0.12510751E-07

  0.22759747E-07  0.91388439E-09 -0.52718297E-08 -0.51874549E-07  0.31058270E-07
  0.32259385E-07  0.39741741E-08 -0.64413163E-08 -0.59588573E-08  0.43416471E-08
 -0.10102940E-05  0.57073603E-06 -0.15850953E-06  0.51841876E-06  0.27163236E-07
  0.20712932E-06 -0.37093983E-06 -0.80659546E-07  0.96422478E-06  0.50876795E-06
 -0.48285536E-06  0.91145036E-06 -0.10699159E-06 -0.16728364E-06 -0.80018478E-07
  0.91469996E-07 -0.81526258E-07 -0.11160045E-05 -0.30153912E-06  0.29112144E-06
 -0.56445660E-06  0.21806574E-06  0.10040999E-06  0.31695232E-06  0.19701211E-06
  0.29148879E-06  0.22997948E-07 -0.45695995E-08  0.32665445E-08 -0.21422809E-07
  0.32808771E-07  0.11749876E-07 -0.14992066E-07 -0.18501570E-08 -0.12765970E-07
  0.62072774E-06 -0.48162237E-06  0.44153809E-06  0.64759200E-06  0.18805327E-06
  0.32177539E-07 -0.49025438E-06  0.50887579E-07 -0.14657229E-06 -0.91564472E-06
 -0.45018856E-06 -0.26188339E-06 -0.52672923E-06  0.11967114E-07 -0.24869670E-06
 -0.77392242E-06 -0.46315309E-06  0.11261319E-06  0.50142058E-07  0.42446469E-08
  0.64866303E-08 -0.13323341E-07  0.15733658E-07  0.28798006E-07 -0.62824067E-08
 -0.52986406E-08  0.84517210E-08  0.13322282E-07 -0.26165784E-07 -0.12564032E-07
 -0.11778880E-07  0.34068457E-07  0.24011796E-07  0.96150822E-08 -0.16114394E-08
 -0.30625726E-08  0.18546560E-07  0.96763223E-08  0.34944344E-08  0.41842732E-08
  0.28395730E-07  0.11099365E-07  0.18706449E-07 -0.12524364E-07 -0.10790179E-08
  0.79451935E-07 -0.18157540E-06  0.12430264E-06  0.16366719E-06 -0.18830013E-06
  0.98945920E-07 -0.27826030E-06  0.27938984E-06  0.22669855E-06  0.11123731E-06
  0.86879712E-08  0.74694253E-09  0.68240957E-06 -0.21379161E-06 -0.12744012E-06
  0.47185631E-07  0.12757693E-07  0.68213857E-08  0.20514437E-05  0.19096678E-05
  0.69287924E-06  0.69148781E-07  0.20531773E-07  0.78793942E-06 -0.32045450E-05
 -0.63703273E-06 -0.10838685E-05 -0.13195589E-06 -0.30123135E-07 -0.35263967E-07
  0.14613631E-06 -0.24496363E-07  0.10126948E-08  0.27076785E-07 -0.45228937E-08
  0.19623469E-07 -0.11260677E-05 -0.88620916E-06 -0.28068365E-06 -0.32442255E-06
  0.12535377E-06  0.94448468E-07 -0.13169494E-05 -0.79444871E-06  0.17232343E-06
 -0.57457114E-06 -0.74365357E-06 -0.85734775E-07  0.26677833E-05  0.28906755E-06
 -0.31257139E-06  0.98361209E-06 -0.23728799E-06  0.32600714E-06 -0.60306467E-06
  0.39910057E-06 -0.10272280E-06  0.78335538E-06  0.20262205E-06 -0.53130041E-07
  0.21607501E-06  0.86410647E-06 -0.13729948E-06  0.32670250E-07  0.37613384E-07
  0.78809660E-08 -0.27466486E-07  0.19471076E-07  0.30496794E-07 -0.35364903E-08
  0.14399825E-07 -0.83838555E-08 -0.16602656E-07  0.46457848E-08  0.15265675E-08
 -0.20214223E-07  0.52418007E-07  0.63100572E-08  0.36996418E-07  0.99514237E-09
 -0.46139090E-09 -0.17827116E-07 -0.83517456E-08 -0.18098922E-07 -0.46992786E-07
  0.25546393E-08  0.38329241E-07  0.84895018E-08  0.38794231E-08  0.44825434E-08

 -0.76388477E-08  0.52421581E-07 -0.11931768E-07  0.20426263E-07 -0.24871595E-07
  0.22389702E-07 -0.27478735E-08  0.24548361E-08 -0.11170802E-07  0.13428859E-06
 -0.81231821E-07 -0.42244695E-06 -0.18953510E-06 -0.57485531E-06  0.16330964E-06
 -0.10456470E-05  0.72500821E-06 -0.69593954E-06  0.47902405E-07 -0.11432834E-05
  0.26413590E-06 -0.10763539E-06 -0.10523459E-05  0.37164313E-06 -0.14033664E-06
  0.10706328E-06 -0.48508447E-06  0.25668848E-06 -0.15706443E-06  0.66752385E-06
  0.81356522E-06 -0.13250496E-05 -0.26000447E-06  0.78119081E-06 -0.18163756E-06
  0.44566566E-06 -0.31336292E-07  0.61487803E-07 -0.29500294E-07  0.19743096E-07
 -0.53005424E-07  0.17233579E-07  0.44773341E-07  0.67985113E-08 -0.92105168E-08
 -0.25446583E-06  0.57057099E-07 -0.15105382E-06 -0.55136627E-06 -0.77311519E-06
  0.37902526E-06  0.80507377E-07 -0.13785967E-07  0.71987729E-07 -0.13188094E-06
  0.46184500E-06  0.65153765E-07  0.29532049E-06  0.30502161E-06  0.10428302E-06
 -0.12875102E-06  0.50452999E-06  0.26625435E-06  0.29904913E-07  0.15501243E-08
 -0.31801822E-08  0.32543674E-07 -0.54631831E-07  0.10401358E-07  0.17993422E-07
  0.81364303E-08 -0.35860515E-08 -0.21681271E-08  0.11949010E-07 -0.20005699E-07
  0.27587484E-07 -0.99970912E-08  0.26277563E-07 -0.31235148E-07  0.24069000E-08
 -0.13636664E-07 -0.22241644E-08 -0.48167697E-07 -0.51473349E-08  0.26670831E-07
 -0.11121079E-06  0.23341521E-07  0.30106893E-09  0.61000100E-08 -0.42639198E-08
 -0.23164470E-06 -0.60894638E-06 -0.14478969E-06 -0.13112350E-06  0.10387470E-05
 -0.18932879E-06  0.69592841E-07 -0.16783330E-06  0.16107812E-06 -0.21777367E-07
 -0.36009904E-07 -0.16176523E-07 -0.21379161E-06  0.10233217E-05 -0.12865913E-06
  0.24798908E-07  0.20776195E-08 -0.33032829E-07 -0.41102792E-06 -0.11550405E-05
  0.21336614E-06 -0.11345950E-05  0.19755423E-06  0.87551978E-07  0.15975134E-05
 -0.34056823E-06  0.78965084E-06 -0.58899251E-07 -0.33790147E-08  0.10640162E-07
 -0.48513852E-07  0.77932807E-07  0.17799154E-07 -0.90143259E-08 -0.75154773E-08
  0.38805571E-08 -0.22418456E-06  0.58438060E-07 -0.22742593E-06 -0.47578019E-06
  0.13124929E-05 -0.21724497E-06 -0.54039880E-06 -0.77237593E-06 -0.36114751E-06
  0.80957934E-06 -0.34185385E-06  0.40928421E-06 -0.13156861E-05 -0.11865618E-05
  0.68487810E-06 -0.15316481E-05  0.24890923E-06  0.59833314E-06 -0.42964825E-06
 -0.65096113E-06  0.89706027E-07  0.55528140E-06 -0.54592536E-06  0.26441860E-06
  0.75963217E-06 -0.11536099E-06 -0.30545420E-06 -0.31965011E-07 -0.42071137E-07
 -0.46805219E-08  0.19074669E-07 -0.28206826E-08  0.18570538E-07 -0.12042047E-07
  0.67919419E-08  0.12084871E-07 -0.34176815E-08 -0.16152874E-07 -0.11530439E-07
  0.44139254E-07 -0.47504595E-07  0.18566644E-07  0.68272024E-08  0.55858551E-08
 -0.90491820E-08  0.12598071E-07  0.37267066E-07  0.73978060E-08  0.30088241E-07
 -0.58330078E-07  0.31062937E-07 -0.15623172E-07  0.10984351E-07 -0.11576076E-07

  0.29724843E-08 -0.71408320E-08 -0.87359630E-09  0.38036980E-07  0.75135425E-08
 -0.11739403E-07  0.61684512E-08  0.97671920E-09  0.12688017E-07  0.17601241E-06
  0.36582272E-06  0.23007025E-08 -0.29832811E-07 -0.15144727E-06  0.28402509E-06
  0.16928403E-06 -0.67208172E-06  0.11853298E-06  0.16265037E-07 -0.21102589E-06
 -0.53263836E-07  0.28951436E-06 -0.75880254E-07 -0.85570361E-07  0.12577275E-08
  0.45789703E-06 -0.46735013E-06  0.27819502E-06  0.35214502E-06 -0.61093496E-06
  0.45823628E-08  0.17956321E-06  0.84901109E-07 -0.15368237E-06  0.16560112E-06
  0.10919309E-06  0.11619780E-08 -0.22082916E-07 -0.87458288E-08  0.12743803E-07
  0.10150404E-07  0.15798990E-08 -0.36478559E-08 -0.40457024E-08  0.16167703E-08
 -0.21559296E-06  0.30736732E-06 -0.21250525E-06  0.30473555E-07  0.19455376E-06
 -0.33488622E-06  0.31825627E-06  0.21877081E-06  0.85288165E-07  0.46128991E-06
  0.20615383E-06 -0.17310633E-06 -0.14980919E-06  0.18717321E-06 -0.34811663E-07
  0.45421100E-06  0.56457732E-06 -0.12369973E-06  0.56496505E-08 -0.12898823E-07
 -0.11180262E-07  0.20925664E-07  0.13836202E-07 -0.10285738E-07 -0.55917047E-08
 -0.32028120E-08 -0.16132009E-07 -0.39058673E-08  0.82564152E-08  0.85888477E-08
  0.31454898E-07  0.18077632E-07 -0.10415558E-07  0.61758071E-08 -0.28525628E-08
  0.39003206E-08 -0.33421252E-08 -0.15644092E-07  0.11168292E-08  0.15226959E-07
  0.30040566E-07  0.33812092E-08 -0.98817339E-08 -0.29163868E-08 -0.21302716E-08
  0.21637311E-07 -0.88903435E-07 -0.23032959E-06  0.26676376E-06 -0.12107224E-06
  0.82429653E-07  0.89110677E-07 -0.30632627E-06 -0.25336116E-06 -0.37681484E-07
 -0.19544776E-07  0.36734849E-08 -0.12744012E-06 -0.12865913E-06  0.34106187E-06
 -0.17342441E-07  0.16926886E-07 -0.33490603E-08 -0.10222657E-05 -0.56497753E-06
 -0.44378527E-06  0.10844521E-05 -0.19887706E-06 -0.92203208E-06  0.89192499E-06
  0.77355064E-06  0.49720606E-06  0.81628486E-07  0.43108383E-07  0.29375430E-08
 -0.16039325E-07  0.32238258E-07 -0.46073988E-09 -0.36131834E-08  0.95778537E-08
 -0.26031595E-07  0.63129803E-06  0.45181828E-06  0.37004014E-06  0.20374538E-06
 -0.29220180E-06  0.10367152E-06  0.30877720E-06  0.52745786E-06  0.11216049E-06
 -0.54875211E-06 -0.17222187E-06 -0.95974873E-06 -0.62094445E-06  0.65543847E-06
 -0.28711309E-06 -0.16000567E-06  0.84543730E-07 -0.44557179E-06  0.61795425E-06
  0.29199660E-06  0.56392132E-06 -0.12584413E-05  0.14471284E-06 -0.24612502E-07
 -0.43602518E-06 -0.25178034E-06  0.23459803E-06  0.18619867E-07 -0.17867308E-07
  0.20426564E-07  0.20725992E-07  0.18465063E-07 -0.39251545E-07  0.64029950E-08
 -0.10626146E-07  0.18625144E-07 -0.53242217E-08  0.56883309E-08  0.15865260E-07
  0.86992273E-08  0.16615409E-07  0.20928650E-07 -0.36513134E-08  0.23598583E-08
  0.35198934E-08 -0.28921558E-08 -0.14236387E-07  0.75784052E-08  0.28084948E-07
  0.42956492E-07  0.32844348E-08 -0.67654788E-08  0.80421733E-09  0.64234000E-08

  0.39622191E-08  0.17084706E-07  0.28943718E-08 -0.24951893E-07  0.25950491E-08
  0.10024125E-07  0.91456434E-08  0.12771753E-07 -0.22962402E-08  0.45932883E-06
  0.43115891E-06 -0.81271378E-07 -0.37868873E-06  0.77452484E-06 -0.25055006E-06
 -0.77146155E-07 -0.21684543E-06  0.41351858E-06  0.73569321E-06  0.90485885E-07
  0.19300658E-06 -0.81529268E-06 -0.57780984E-06  0.23238609E-06 -0.92755937E-06
  0.54359514E-07 -0.24651283E-06 -0.27545969E-06 -0.74006334E-06 -0.11579739E-06
  0.13251101E-05  0.43670214E-06 -0.21127558E-06  0.11604335E-05  0.16013009E-06
 -0.63935057E-07 -0.21275706E-08 -0.42865389E-07  0.54294798E-08 -0.38560413E-08
  0.70458498E-08 -0.40222417E-08  0.32046351E-07 -0.48648035E-08  0.10874013E-07
  0.21058947E-06 -0.49719458E-06 -0.26611976E-06 -0.12346630E-06  0.44086299E-06
  0.12730023E-07 -0.54098464E-06 -0.15301708E-06 -0.11854155E-06 -0.21849211E-06
  0.20834872E-06 -0.41389464E-07 -0.90054065E-06 -0.92432332E-06  0.50022298E-07
 -0.13042919E-05 -0.18410328E-06 -0.10086022E-06 -0.27005327E-08  0.36477340E-07
 -0.35196835E-08 -0.91676996E-08 -0.30684141E-07  0.12047688E-07  0.33487099E-08
 -0.11706408E-08  0.35160585E-08  0.21652186E-07 -0.33589419E-07  0.25180144E-08
 -0.22586986E-07  0.21887315E-08  0.80788136E-08 -0.24646728E-07 -0.71548159E-08
  0.20239502E-07  0.40877484E-08  0.54007777E-07 -0.58553509E-08  0.22561620E-07
  0.64189714E-07 -0.83939160E-08  0.22439491E-07  0.96868773E-08 -0.88509111E-09
  0.39705038E-06  0.12395937E-07  0.48238564E-07  0.73036661E-07 -0.28736742E-06
  0.25376071E-06  0.47574895E-07  0.15207875E-06  0.12807565E-06  0.78996843E-07
  0.13695745E-07  0.17808389E-07  0.47185631E-07  0.24798908E-07 -0.17342441E-07
  0.59289068E-06 -0.22599550E-08  0.19376868E-08  0.21818657E-05  0.49122828E-06
  0.12721118E-06 -0.23882364E-05  0.15284456E-05  0.53326003E-06 -0.16953891E-06
 -0.36537526E-06  0.32295366E-06 -0.52523291E-07 -0.52891965E-07 -0.26656099E-07
 -0.96532704E-08 -0.27672518E-07 -0.15032345E-08  0.53979484E-08 -0.38293967E-08
  0.29034768E-07 -0.10740862E-05 -0.41997134E-06  0.71939466E-06 -0.10035051E-05
 -0.25405274E-06  0.37824412E-06 -0.82428893E-06 -0.75014622E-07  0.17228453E-06
 -0.22179455E-05 -0.89593057E-06 -0.65724099E-07  0.38796735E-05  0.55734237E-06
 -0.24774511E-06  0.30343833E-05 -0.36449616E-06 -0.30320538E-06  0.46952926E-06
  0.74603162E-06 -0.10758499E-06  0.11260885E-05 -0.94397345E-06  0.25393546E-06
 -0.36586399E-06 -0.16600773E-06 -0.40460595E-07  0.65119342E-08 -0.34712692E-07
  0.10904293E-08  0.27086424E-07  0.70888230E-08 -0.17440546E-07  0.11201573E-07
 -0.14002256E-07 -0.85881207E-08 -0.11509378E-07 -0.44465125E-08 -0.26454282E-08
  0.16787234E-07 -0.60155136E-09 -0.38076434E-08  0.40619035E-07 -0.18644298E-07
 -0.15681169E-08 -0.22556751E-07 -0.19128599E-07 -0.98350197E-08  0.90224176E-09
 -0.44305782E-08  0.12877896E-07 -0.42557556E-07 -0.63415508E-08  0.39093833E-08

 -0.75026499E-08  0.10582674E-07  0.84230194E-08 -0.25048799E-07  0.11691302E-07
 -0.72721929E-08 -0.71091204E-08 -0.71242032E-08  0.32440038E-08  0.11599289E-06
 -0.29628057E-06 -0.16795099E-06  0.49339087E-06 -0.47366637E-06  0.36151127E-06
 -0.41455021E-07  0.34580434E-06  0.10024326E-06  0.24356830E-06 -0.33708419E-06
 -0.12156362E-06  0.43791883E-06 -0.40154838E-06  0.27691697E-06  0.21811915E-06
 -0.34287570E-06 -0.94311850E-07  0.31051599E-06  0.12761442E-06 -0.12052079E-06
 -0.13350522E-06 -0.89139652E-07 -0.39473491E-06 -0.18992040E-06  0.21317033E-06
  0.66355566E-07 -0.29501530E-07 -0.53877612E-08 -0.74108390E-08  0.18202244E-07
 -0.94424110E-08  0.16779810E-07 -0.26327076E-08 -0.51259343E-08 -0.50517632E-08
  0.34780669E-08 -0.24047034E-07 -0.17473987E-06 -0.56261645E-07 -0.25847232E-06
  0.15694493E-06  0.12868929E-06  0.12308310E-06  0.71176844E-07 -0.91131323E-07
 -0.13086959E-06  0.59792706E-07 -0.85808326E-08 -0.13000875E-06 -0.53950999E-07
  0.16066087E-06  0.34817715E-06 -0.92410461E-07  0.50421703E-08 -0.46392271E-08
 -0.89332562E-08 -0.13914039E-07 -0.17374378E-08  0.55345951E-08 -0.82137020E-08
 -0.34719150E-08  0.71134763E-08 -0.14725097E-07  0.53290453E-08  0.28925816E-08
 -0.16884111E-08  0.15703775E-07 -0.15255339E-08  0.43975595E-08 -0.51181402E-08
 -0.69296059E-08 -0.16905652E-07  0.10727246E-07  0.93099653E-09  0.10634853E-07
 -0.41395158E-08  0.23917756E-08  0.17702592E-08  0.71336178E-08  0.39940514E-08
  0.24466236E-06 -0.32909157E-06 -0.35268829E-06 -0.16261149E-06  0.34704443E-06
 -0.44408898E-07  0.11970014E-06 -0.37576978E-07 -0.64213686E-07  0.41205062E-07
  0.20025751E-08  0.24294372E-07  0.12757693E-07  0.20776195E-08  0.16926886E-07
 -0.22599550E-08  0.32556897E-06  0.21403336E-07  0.22790038E-06 -0.34569226E-07
 -0.95601840E-06 -0.84983402E-06  0.30920533E-06  0.97838891E-06 -0.81882209E-06
  0.16180188E-05  0.41268897E-06  0.25857533E-07  0.31907796E-07  0.72698496E-08
 -0.19295274E-07  0.12357215E-07 -0.18716783E-08 -0.21875356E-07  0.29475386E-09
  0.15265400E-07 -0.88333415E-07  0.54153727E-06  0.62481388E-06 -0.11146803E-06
 -0.61982082E-08 -0.47765575E-06  0.73793176E-07  0.11219217E-07  0.19167648E-06
  0.43169990E-07 -0.20067627E-06 -0.77885008E-07 -0.33616400E-06  0.57666956E-06
 -0.30684965E-06  0.17835698E-06  0.93582658E-07  0.13966936E-06 -0.30924134E-06
  0.16139872E-06  0.14032740E-06  0.62711802E-06 -0.11950828E-06 -0.28321439E-06
  0.53960378E-06 -0.23405091E-06 -0.37726408E-06  0.18231831E-07 -0.10924411E-07
 -0.10065568E-07  0.15064891E-07 -0.84537194E-08  0.10012208E-07  0.98232440E-08
  0.60358621E-08 -0.57581513E-08 -0.18848804E-07 -0.22610774E-07 -0.11997119E-07
 -0.53265219E-08  0.21963216E-07 -0.38754252E-08 -0.16923623E-07  0.17680784E-07
 -0.11682379E-07 -0.84370257E-08  0.17168380E-07 -0.63870852E-09  0.16767535E-07
 -0.20903772E-08 -0.47508248E-08 -0.56683789E-08  0.58444948E-08 -0.52917958E-08

  0.13810783E-07  0.16463608E-07  0.20404937E-07 -0.30332318E-08  0.80460837E-08
  0.47779916E-08  0.51984932E-08 -0.22121274E-09  0.27896158E-08  0.91065365E-07
 -0.42745533E-06 -0.64740824E-07 -0.30413538E-06  0.72427292E-06  0.51699338E-06
 -0.28652092E-06  0.48613716E-07  0.29783337E-06 -0.13377243E-06 -0.35343132E-06
  0.18883187E-06 -0.47773728E-06 -0.77472595E-06  0.42114188E-06 -0.14205051E-06
 -0.21053311E-06  0.80954387E-07 -0.18445224E-06  0.42614004E-06 -0.33987196E-06
  0.10188647E-06  0.30395182E-06 -0.97243980E-07 -0.29143825E-06  0.16717634E-06
 -0.55947110E-06 -0.79439049E-08 -0.39285931E-07 -0.12453537E-07  0.91304854E-08
 -0.39708720E-08 -0.51966170E-08  0.51157881E-08  0.11968999E-08 -0.89501704E-08
 -0.43763740E-07 -0.10427363E-06  0.73215898E-07 -0.18734675E-06  0.25695586E-06
  0.91438376E-07  0.14641738E-06  0.24571681E-06  0.28960472E-07 -0.11012640E-06
  0.48873530E-06  0.17867194E-06 -0.39509939E-06  0.41782391E-06 -0.20509230E-07
  0.60139518E-08 -0.10814431E-07 -0.37502045E-06  0.76047133E-08  0.10934925E-07
  0.71110886E-08  0.24667432E-08 -0.15271058E-07 -0.52566562E-08 -0.14975259E-08
 -0.35342762E-08  0.16029992E-07 -0.50372817E-08 -0.82015895E-08  0.13425010E-08
 -0.93458726E-08  0.35298606E-08  0.49253969E-08  0.12299145E-08  0.11872121E-08
  0.25560612E-07  0.23892621E-08  0.87875367E-08  0.15804727E-08 -0.12563526E-07
  0.24174331E-07  0.12104105E-07 -0.97580111E-08 -0.59929023E-08  0.13381157E-07
  0.26414633E-07 -0.45874504E-07 -0.22754815E-07 -0.99281418E-07 -0.30116032E-06
  0.39065349E-06  0.16013218E-06  0.91961032E-07 -0.26580918E-06 -0.30590511E-08
  0.24392465E-07  0.22616291E-07  0.68213857E-08 -0.33032829E-07 -0.33490603E-08
  0.19376868E-08  0.21403336E-07  0.32726297E-06  0.33279992E-06 -0.16259406E-06
 -0.43410184E-06 -0.42708557E-06 -0.49913951E-06  0.57412562E-06 -0.22992962E-06
  0.94982778E-06  0.27149537E-06  0.25620925E-07  0.68509251E-07  0.15470483E-07
  0.25981712E-07 -0.49389194E-07 -0.36260336E-08 -0.48039685E-07 -0.39814770E-07
 -0.18571021E-07  0.27568968E-06 -0.12375297E-06 -0.45363462E-07  0.78680692E-07
 -0.17377527E-06  0.24427144E-07  0.19504691E-07 -0.18775612E-06 -0.47237429E-06
 -0.18853607E-06 -0.62034631E-06 -0.61677786E-06 -0.93201082E-07  0.83013590E-06
  0.50394683E-06  0.76956645E-06 -0.16869507E-06  0.82787942E-06  0.46600665E-06
  0.26779447E-06 -0.70127964E-07 -0.49332198E-06 -0.90038450E-06  0.42521850E-06
 -0.67222008E-06 -0.41248995E-06 -0.13396363E-06  0.83991679E-08  0.18282639E-07
 -0.65567968E-08  0.10485278E-07 -0.15942726E-07  0.78586441E-08  0.16391055E-07
  0.13765128E-07  0.99769770E-09  0.50905398E-08 -0.15228903E-07  0.12228317E-07
  0.21950783E-09 -0.21785812E-08 -0.47649337E-08  0.87834855E-08 -0.29381641E-08
  0.12468024E-07 -0.40105568E-08  0.56153367E-08 -0.12601810E-07  0.65538195E-08
 -0.10386832E-07 -0.56288447E-08  0.36099897E-08 -0.70902906E-08  0.16449866E-07

 -0.65409730E-06 -0.20820919E-06  0.18498298E-06 -0.84580218E-06  0.41294224E-06
  0.36831600E-06 -0.22968217E-06  0.35141510E-06 -0.42282574E-06  0.16128846E-04
 -0.71133254E-05 -0.47859280E-05 -0.94085666E-06  0.26588280E-04  0.70694944E-05
  0.73702407E-05 -0.11511597E-04  0.77274633E-05  0.16844434E-04 -0.20274529E-04
  0.44175698E-05 -0.24808792E-04 -0.12018651E-04  0.71284461E-05 -0.15720511E-04
 -0.46568921E-05  0.18713898E-05 -0.90514631E-05 -0.90064707E-06 -0.33323697E-05
  0.19007443E-04 -0.14069658E-04  0.44993816E-05 -0.10169582E-04 -0.20327499E-05
  0.35889585E-05  0.30100259E-07  0.61652525E-06 -0.13625996E-06 -0.23450309E-06
  0.45996684E-06  0.39189770E-06 -0.50373744E-06 -0.25718204E-06 -0.10454268E-06
  0.24153242E-04 -0.20140344E-04  0.97231902E-05 -0.92497571E-05  0.25024111E-04
 -0.40294398E-06  0.31428699E-05  0.35399138E-05 -0.13024210E-04  0.14445915E-04
 -0.11436289E-04  0.35656386E-05  0.11074794E-04 -0.82125744E-05 -0.22256786E-04
 -0.18364563E-04  0.99858769E-06  0.11406513E-04  0.10145715E-05  0.67464891E-06
 -0.21820733E-06  0.28124387E-06 -0.47506937E-06  0.28364066E-06 -0.17180331E-06
 -0.20369061E-07 -0.10629913E-06  0.61779689E-06  0.84394592E-07 -0.24964770E-06
 -0.74798904E-06 -0.90950623E-07  0.36629887E-06 -0.95998375E-07  0.93077783E-06
  0.26443725E-06 -0.17760702E-06 -0.32933034E-07  0.33922532E-07  0.24762564E-06
  0.37973468E-06 -0.70971872E-07  0.18878449E-07 -0.69598997E-07  0.15255434E-06
  0.10855196E-04 -0.46468066E-05 -0.60868523E-05  0.23909633E-04 -0.13877351E-05
  0.44227545E-05  0.14783889E-04  0.20074733E-05  0.59050521E-05  0.26413057E-05
  0.59876575E-06  0.10045695E-05  0.20514437E-05 -0.41102792E-06 -0.10222657E-05
  0.21818657E-05  0.22790038E-06  0.33279992E-06  0.23641480E-03  0.18278403E-04
  0.10665116E-04 -0.61067196E-05  0.48920419E-05  0.49005060E-05 -0.22301920E-04
  0.10999237E-04 -0.21135598E-05 -0.19723141E-05 -0.11548414E-05 -0.56380398E-06
 -0.50802834E-06 -0.34690718E-06 -0.32954080E-06 -0.15563501E-06  0.58700447E-06
  0.92320147E-06 -0.52344974E-04 -0.23924574E-04 -0.72440570E-05 -0.81942568E-05
 -0.15777653E-04  0.10559671E-04 -0.15186972E-04 -0.12855146E-04 -0.97194797E-05
 -0.54732186E-04 -0.38565828E-04 -0.20696781E-06  0.21569582E-04 -0.21327902E-05
  0.30641697E-05  0.36196947E-05 -0.10596669E-04  0.67779326E-06  0.26478565E-05
  0.22039873E-04  0.18736416E-05  0.56533513E-04  0.12327717E-04 -0.10199128E-04
  0.25331218E-04  0.21356660E-04  0.15386890E-05 -0.31927865E-06  0.62346890E-06
 -0.10075366E-05 -0.96413485E-07  0.40763673E-06 -0.21893901E-07 -0.21680576E-06
  0.20052482E-06 -0.16065222E-06 -0.24014758E-06 -0.82412787E-06  0.14370540E-06
  0.45433117E-06  0.64265637E-06  0.56699458E-07 -0.13119955E-07 -0.16055690E-06
 -0.26236770E-06  0.45509782E-07 -0.24873817E-06  0.41860135E-06  0.16627361E-06
 -0.37335029E-06  0.19515321E-06  0.38533292E-06 -0.32414742E-06  0.18619083E-06

  0.56392436E-07  0.31253494E-06 -0.51756498E-06 -0.20748313E-07  0.27757989E-06
 -0.17376388E-06  0.51972232E-06  0.52330569E-07 -0.21360540E-06  0.18184610E-04
 -0.65953696E-04  0.36120321E-05 -0.16171324E-04 -0.57143040E-04 -0.82673692E-05
  0.12135764E-04 -0.11484417E-04  0.33008022E-04 -0.99421093E-05  0.17330153E-04
  0.15075756E-04  0.10231758E-04  0.76322470E-05 -0.15355173E-04 -0.65149480E-05
 -0.21859069E-05  0.85347567E-05  0.32953275E-04 -0.30974543E-05 -0.31584143E-04
 -0.46300178E-05 -0.16286886E-04  0.20452255E-04 -0.87259154E-05  0.39817538E-05
 -0.72864857E-05  0.55531412E-06 -0.24864609E-05 -0.55605868E-06 -0.47579446E-07
  0.30294422E-06 -0.72786690E-08 -0.75642509E-06 -0.13924101E-06 -0.21790741E-06
  0.28361573E-06 -0.65776035E-04 -0.73415009E-06  0.85462306E-05 -0.18213515E-04
  0.10631357E-04 -0.50357821E-05  0.61340496E-06 -0.35585695E-04 -0.38408042E-05
 -0.77971716E-05 -0.31064982E-04 -0.11231141E-04 -0.32869523E-04 -0.13637404E-05
 -0.35523951E-04 -0.37790446E-04 -0.16296298E-05  0.65779994E-07 -0.18614451E-05
  0.24472985E-06  0.21063271E-07 -0.51274486E-06 -0.24865968E-08 -0.61574338E-07
 -0.43450891E-07  0.71558523E-06 -0.98749571E-07 -0.13542316E-06  0.16694709E-06
 -0.22092283E-07  0.36288644E-06 -0.24303841E-06 -0.39494102E-06  0.92749643E-07
 -0.66629645E-07 -0.82245717E-06  0.13620622E-05  0.25268574E-06 -0.33271018E-06
  0.82600945E-06 -0.23055076E-06 -0.65693248E-07  0.23588316E-06  0.51170695E-06
  0.57575757E-05  0.36372567E-05  0.16367638E-04 -0.73926135E-05  0.12057224E-04
  0.85253798E-05  0.50877097E-06 -0.91152690E-06  0.13141432E-04  0.13559664E-05
 -0.22253214E-05 -0.72042115E-06  0.19096678E-05 -0.11550405E-05 -0.56497753E-06
  0.49122828E-06 -0.34569226E-07 -0.16259406E-06  0.18278403E-04  0.40808054E-03
 -0.22218022E-04  0.71015111E-05  0.59133174E-05  0.42573095E-05 -0.11554280E-04
 -0.28483007E-05 -0.12795589E-04  0.11232886E-05 -0.14079562E-05 -0.60959870E-06
  0.31039234E-06 -0.12805571E-05 -0.41693981E-06  0.14403433E-06  0.60204408E-06
  0.13082837E-05  0.99010834E-05 -0.19041907E-04 -0.21723245E-05  0.14026253E-04
 -0.92046462E-04 -0.74187316E-06  0.11800771E-04  0.66897922E-05 -0.31711420E-04
  0.24540448E-04  0.34779774E-04 -0.90096543E-05  0.32129230E-04 -0.62078008E-04
  0.20414647E-04  0.17741693E-04  0.16691618E-05 -0.47299273E-04 -0.17725456E-04
  0.22507090E-04 -0.19755486E-04  0.31492622E-05 -0.57239786E-05  0.23343130E-08
 -0.19234596E-04  0.21100294E-04  0.91794780E-05 -0.30843021E-06  0.90669661E-07
  0.44622986E-07 -0.35419769E-06 -0.82173741E-06 -0.22098878E-06 -0.56327988E-06
 -0.21923540E-08 -0.64777113E-06 -0.62876685E-06 -0.46834242E-06 -0.33263243E-06
 -0.38532759E-06  0.55678827E-06  0.11826134E-06  0.13448173E-06 -0.15345147E-06
 -0.12199834E-06  0.11574190E-06 -0.31047779E-06 -0.19872788E-06 -0.41550897E-06
  0.24222575E-06 -0.10681926E-06 -0.40252436E-06 -0.27981177E-06  0.75736045E-07

  0.37154899E-06 -0.26510591E-06  0.33870744E-06  0.52026446E-06 -0.15898058E-06
  0.20517234E-06 -0.73288279E-07  0.20902105E-06 -0.22638867E-07 -0.65984022E-05
 -0.85699360E-05  0.22135629E-04 -0.14641499E-04  0.15191908E-04  0.48354665E-05
 -0.16828343E-04  0.10160471E-04  0.14820661E-05 -0.47766339E-05 -0.20611775E-04
  0.38025360E-05 -0.28099288E-05  0.10048145E-04  0.92798462E-05 -0.53087951E-05
  0.55429391E-05  0.75664624E-06 -0.10837735E-04  0.70403620E-05  0.13469223E-04
 -0.88092100E-05 -0.29333156E-05 -0.33242327E-05  0.56343997E-05  0.84409168E-06
  0.26941052E-05 -0.20323160E-06  0.24605945E-06 -0.93303856E-07 -0.32300116E-06
  0.16191152E-06  0.15535174E-07 -0.19143545E-07  0.89663566E-07 -0.82004031E-07
  0.91270847E-05 -0.90809271E-05  0.11993815E-04  0.45009235E-05 -0.44868814E-05
 -0.11713530E-04  0.25186141E-05 -0.46722297E-05  0.12337342E-04 -0.12409705E-05
  0.15170560E-04  0.30615189E-05  0.81271751E-05  0.12241123E-04  0.43111064E-05
  0.25683626E-05 -0.57971996E-05  0.68805407E-05  0.35309812E-07  0.46953280E-06
  0.55575747E-06  0.35918243E-06  0.20644841E-06  0.43235832E-07 -0.13000174E-06
  0.24490954E-06 -0.10453451E-06 -0.57429919E-07 -0.10372364E-06 -0.28340463E-06
  0.10580972E-06  0.17739051E-06  0.34726980E-06 -0.91337930E-07  0.41265841E-06
 -0.37999677E-07  0.82901150E-07 -0.47095807E-06 -0.49466579E-06  0.35127416E-06
 -0.16050670E-06 -0.97682792E-08 -0.46220098E-07 -0.52618373E-07 -0.11206398E-07
 -0.10504991E-04 -0.38485343E-05 -0.53621716E-05  0.32238909E-05  0.88699541E-05
 -0.15090055E-04  0.16765903E-05  0.71643808E-05  0.46375419E-05  0.82094195E-06
  0.59294338E-06 -0.35595259E-06  0.69287924E-06  0.21336614E-06 -0.44378527E-06
  0.12721118E-06 -0.95601840E-06 -0.43410184E-06  0.10665116E-04 -0.22218022E-04
  0.11892476E-03 -0.43365242E-05  0.70192277E-06 -0.61105690E-05  0.23042295E-06
 -0.14033549E-04 -0.10714428E-05 -0.14210401E-05 -0.52869188E-06 -0.74701424E-06
  0.78600643E-06  0.61357983E-06  0.43957432E-07  0.82234144E-06  0.12135002E-06
 -0.63834218E-07 -0.22260746E-05 -0.41444539E-05 -0.17106972E-04 -0.19458226E-04
  0.24615714E-04  0.75596691E-05 -0.13302233E-04  0.67714817E-05  0.72609806E-05
 -0.29430074E-05 -0.18038377E-04 -0.10503751E-04 -0.13896153E-04 -0.69558484E-05
 -0.81180108E-05 -0.13701255E-04 -0.25846892E-04  0.11144292E-04  0.10463608E-04
  0.56915869E-05  0.14523830E-04 -0.22900026E-04  0.16415049E-04  0.42024871E-05
  0.12641953E-04 -0.12206202E-05 -0.10869875E-04 -0.37653322E-06 -0.29027829E-06
  0.71158271E-06  0.97735202E-07  0.19115230E-06  0.57386910E-06 -0.17608895E-06
 -0.12211556E-07  0.14721148E-07 -0.35223786E-07 -0.28756662E-08  0.38734051E-07
  0.27694610E-06  0.30959149E-06 -0.39197129E-07 -0.13306936E-06  0.99650911E-07
  0.14336779E-06 -0.21317198E-07 -0.38650728E-08 -0.96411997E-07 -0.31911199E-06
  0.41602404E-06  0.45892400E-06  0.15097729E-06  0.27081799E-06 -0.11422700E-06

 -0.66981616E-06  0.60542219E-06 -0.40086607E-07  0.24942657E-06 -0.61720023E-07
 -0.25791966E-06 -0.21182238E-06  0.15436694E-06  0.13961600E-06  0.34210740E-05
  0.27509443E-05  0.41828977E-05  0.74641184E-05  0.32350915E-05  0.11433644E-04
  0.19579692E-04  0.56099861E-05  0.28616125E-05 -0.27028524E-04 -0.21704437E-04
  0.26569464E-05  0.23801457E-04 -0.78753882E-05 -0.23288232E-04  0.24756957E-04
 -0.16852138E-04  0.36125914E-05  0.75587865E-05  0.11359292E-04  0.64960919E-05
 -0.56321486E-06 -0.12482324E-04  0.24182257E-05 -0.13686224E-04  0.17137049E-04
 -0.76203480E-05  0.81632470E-06 -0.92072482E-06 -0.12893902E-06 -0.61558957E-06
 -0.17341484E-06  0.71019109E-07  0.35767599E-06 -0.29110169E-06  0.22552051E-06
 -0.32494128E-04 -0.97121426E-05  0.68380223E-05 -0.53316039E-06  0.13790536E-04
 -0.50473061E-05  0.12843938E-04  0.20619432E-04 -0.39281583E-05  0.67394126E-04
  0.66158685E-05  0.71277527E-05 -0.20232759E-04  0.28694565E-04 -0.79458525E-05
  0.27530491E-04  0.19953657E-04  0.94568530E-05 -0.54657621E-06 -0.30377060E-06
 -0.25655867E-07 -0.34156757E-06  0.13488669E-07 -0.47815997E-06  0.24361583E-06
  0.24372467E-06 -0.15615905E-06  0.96501518E-07  0.23118336E-07  0.27161689E-06
 -0.38157104E-06 -0.37101057E-06 -0.48728942E-07 -0.17699914E-07  0.60354483E-06
 -0.61016362E-08  0.10085194E-05 -0.63226750E-06 -0.24431199E-06  0.36764563E-06
 -0.13774726E-05 -0.19358348E-06 -0.29482595E-06  0.55034850E-06  0.17864239E-06
 -0.39170455E-04  0.71045936E-05  0.15326759E-04  0.39058891E-05 -0.55309295E-05
  0.13457799E-04 -0.51791194E-06 -0.30910913E-04  0.41918869E-06 -0.39709671E-05
 -0.44978620E-05 -0.63420209E-06  0.69148781E-07 -0.11345950E-05  0.10844521E-05
 -0.23882364E-05 -0.84983402E-06 -0.42708557E-06 -0.61067196E-05  0.71015111E-05
 -0.43365242E-05  0.37276441E-03 -0.13322369E-03 -0.60574553E-04  0.85581946E-05
  0.35140060E-04  0.19279577E-05  0.34475452E-05  0.27499671E-05  0.16807036E-06
 -0.33426234E-05 -0.62867182E-06  0.36197017E-06 -0.25522955E-05  0.49614976E-06
 -0.84572485E-07  0.73145312E-04  0.16157057E-04 -0.17110361E-05  0.44702300E-04
 -0.49477241E-04 -0.15748892E-04  0.18901255E-04  0.17819305E-04 -0.50640810E-05
 -0.44726519E-04 -0.19307634E-05 -0.89274991E-05 -0.10168956E-03  0.53456789E-05
  0.17313480E-06 -0.47246139E-04  0.69404796E-05  0.86886437E-05  0.55545360E-05
 -0.14265794E-04 -0.62173072E-05 -0.26864645E-04 -0.17404214E-04  0.43011298E-05
 -0.51456219E-04  0.21345372E-04 -0.73298916E-05  0.49209926E-06 -0.50935947E-06
 -0.47349352E-06 -0.83638081E-06 -0.58429306E-06 -0.19625831E-06 -0.16365631E-06
  0.92222898E-07 -0.29116054E-06  0.93940577E-06  0.11086982E-06  0.47640580E-06
 -0.98246795E-06 -0.47244419E-06  0.94791585E-07  0.10800153E-05  0.56998556E-06
  0.15895260E-06  0.15761466E-05  0.29353463E-07 -0.68674834E-06 -0.16141408E-05
  0.64275463E-06 -0.59916899E-06  0.20705516E-06 -0.21072933E-06  0.15943554E-06

  0.45581143E-06 -0.31753070E-06 -0.14351342E-06  0.41013286E-06 -0.69586097E-06
  0.11954981E-06  0.36584435E-07  0.85777605E-07  0.23769063E-06  0.54773100E-05
 -0.22203419E-04 -0.16476920E-04  0.51467932E-06 -0.42196399E-04  0.14740481E-04
  0.33336075E-04  0.85167863E-05 -0.23275885E-04  0.12670860E-05  0.28137398E-04
  0.60131126E-05 -0.33893795E-05  0.56052893E-04 -0.12445583E-04  0.40526393E-04
  0.67887683E-06  0.71765317E-05 -0.27265013E-04  0.72035943E-05 -0.13772571E-04
  0.70826780E-05 -0.45167112E-04  0.16028827E-04  0.12612106E-04  0.45160266E-07
  0.86414032E-05  0.86977020E-07  0.16389522E-05 -0.22579228E-06  0.63530236E-06
 -0.16543886E-05  0.24434010E-06 -0.31326047E-06  0.12627823E-06 -0.45414523E-06
  0.92797293E-05  0.49885258E-04  0.42847620E-05 -0.70628851E-05  0.98846405E-04
  0.20504622E-05 -0.30402440E-04 -0.63254381E-05 -0.11730129E-04 -0.38933526E-04
 -0.20451838E-04 -0.20484924E-04  0.24434401E-04 -0.17892694E-04 -0.14776128E-04
  0.40112714E-04 -0.19472996E-04 -0.17918888E-04 -0.18069794E-06  0.35079068E-06
  0.43272067E-06  0.25307700E-06 -0.22162668E-07  0.33967037E-06 -0.55957553E-06
 -0.23406259E-06  0.20860686E-06 -0.32554793E-06  0.60941325E-06  0.10822334E-06
 -0.41883045E-07  0.76669694E-06 -0.27577616E-07 -0.97042707E-07  0.33040439E-07
 -0.23987240E-06  0.33984345E-06 -0.22989951E-05  0.58294316E-06 -0.42592477E-06
  0.13190673E-05 -0.12195758E-06 -0.88407576E-06 -0.17565386E-06  0.34361674E-07
  0.28668626E-05 -0.60454121E-04 -0.10083765E-04 -0.13497274E-04  0.12442108E-04
  0.37428732E-05 -0.38946628E-04  0.20714620E-04  0.61384085E-05  0.10803873E-05
  0.27503929E-05  0.36731120E-06  0.20531773E-07  0.19755423E-06 -0.19887706E-06
  0.15284456E-05  0.30920533E-06 -0.49913951E-06  0.48920419E-05  0.59133174E-05
  0.70192277E-06 -0.13322369E-03  0.56346053E-03 -0.59155765E-04 -0.40245716E-04
 -0.21470277E-04 -0.45552636E-04 -0.17561462E-05 -0.27070865E-05 -0.93175853E-06
  0.12587578E-05  0.19976235E-05 -0.77150781E-06  0.17820275E-05 -0.80912336E-06
  0.42226127E-06 -0.26370361E-04 -0.33421118E-04  0.10724070E-04 -0.90791217E-05
  0.13078473E-03  0.12416362E-04 -0.99453989E-05 -0.29700613E-04  0.22503521E-04
  0.29281279E-06  0.63939348E-05  0.34180923E-04 -0.12033702E-04  0.42063324E-05
 -0.81889075E-05 -0.18451906E-04 -0.79528075E-05  0.21012458E-05 -0.20719239E-04
 -0.36347275E-05  0.14714759E-04  0.18850059E-04  0.19727719E-04 -0.61514681E-05
 -0.33096083E-04 -0.92367318E-05 -0.29817677E-04  0.39327043E-06  0.16198275E-06
 -0.32252944E-06  0.88435866E-07  0.99969676E-06  0.72679280E-07  0.42754547E-06
 -0.28580972E-06  0.40948677E-07  0.28517494E-06  0.72343429E-06 -0.11416558E-06
  0.40225569E-06 -0.46144151E-06  0.32599102E-06  0.79732957E-07 -0.29047221E-07
 -0.76502028E-06 -0.81493316E-06  0.87950852E-06  0.12278266E-05  0.69336232E-06
 -0.43126150E-07  0.64293926E-06  0.33491254E-06  0.18752137E-06 -0.50730058E-06

  0.63080546E-07  0.12837390E-06 -0.21573744E-06 -0.40181491E-06  0.46125621E-06
 -0.65812299E-07  0.14324567E-06 -0.10180484E-06 -0.27320651E-06  0.24269736E-05
 -0.52803642E-05  0.11211579E-04 -0.33852270E-06  0.53507422E-05 -0.14664781E-04
 -0.74001216E-05 -0.46734367E-05  0.51931115E-05  0.12376685E-04 -0.57964608E-05
 -0.49734493E-05 -0.21168831E-04 -0.67839846E-05  0.73880001E-05 -0.14849304E-04
 -0.14622988E-04 -0.72271567E-05  0.48163030E-05 -0.12437673E-05  0.13144079E-04
  0.20459981E-04  0.93831849E-06 -0.33900717E-04  0.33008831E-05 -0.60205420E-06
 -0.99757709E-05 -0.15962912E-06 -0.42120568E-06 -0.19593091E-06 -0.11471382E-06
  0.22509603E-06  0.10535562E-06 -0.17743224E-06  0.18335843E-07  0.40800449E-07
  0.48078326E-05  0.80311514E-07 -0.12724009E-04  0.59107625E-05 -0.21801325E-04
 -0.98948532E-05 -0.54244708E-06  0.38118789E-05  0.62482141E-06  0.10122210E-04
  0.28753872E-05 -0.77272292E-05 -0.21325050E-04 -0.42952410E-05  0.17822653E-04
 -0.22701214E-04  0.13021190E-04  0.30701318E-05  0.40962060E-06 -0.29707822E-06
 -0.82236044E-06 -0.20512912E-06  0.65745056E-07  0.28391772E-06 -0.23553371E-06
  0.66282779E-07  0.45071150E-06 -0.33784395E-06  0.12300388E-06  0.35675055E-06
  0.23175368E-06 -0.83718502E-07 -0.13445784E-06  0.10185129E-06 -0.19918915E-06
 -0.32662715E-06 -0.41127305E-06  0.54537688E-06 -0.27297563E-06  0.16916756E-06
 -0.19976755E-06  0.59455063E-06  0.20374944E-06 -0.91554614E-07 -0.16114360E-06
  0.15858195E-04 -0.94109280E-06  0.26691002E-05  0.11035375E-04 -0.14910361E-06
 -0.16441825E-04  0.92657794E-05 -0.59252687E-06 -0.68099275E-05  0.19379552E-05
  0.62785550E-06  0.64851552E-06  0.78793942E-06  0.87551978E-07 -0.92203208E-06
  0.53326003E-06  0.97838891E-06  0.57412562E-06  0.49005060E-05  0.42573095E-05
 -0.61105690E-05 -0.60574553E-04 -0.59155765E-04  0.15304319E-03 -0.13403454E-04
  0.29161170E-04  0.41286124E-05 -0.39683309E-06 -0.13734302E-07  0.13697611E-05
  0.83664296E-06 -0.14222492E-05  0.82613944E-06 -0.54741689E-06  0.32578954E-06
 -0.18824325E-06 -0.88716012E-05 -0.87695169E-05  0.60287815E-05 -0.81574676E-05
 -0.13897852E-04 -0.16454945E-05 -0.10129458E-04  0.49493355E-05  0.56888224E-05
 -0.20366032E-04 -0.89292454E-05 -0.30626669E-04  0.37958578E-04 -0.97184760E-05
  0.92064897E-05  0.21003586E-04 -0.11162831E-04 -0.59335080E-05  0.22548240E-04
  0.20459395E-04 -0.44965640E-05  0.26640963E-04 -0.13782021E-04 -0.28915971E-05
  0.23336400E-04 -0.27933067E-04  0.10592561E-04 -0.67223203E-06  0.19912794E-06
 -0.26389629E-06  0.26995989E-06 -0.16784702E-06  0.14772780E-06 -0.10243569E-07
  0.22330273E-06  0.23019607E-06 -0.23616306E-06 -0.15788801E-06 -0.32997819E-06
  0.32032812E-07  0.62960079E-06 -0.12613535E-06 -0.25354990E-06 -0.31713783E-07
 -0.15984769E-06 -0.17600333E-06  0.27906148E-06 -0.89341586E-06 -0.68681754E-11
  0.61055652E-07 -0.28760892E-06 -0.20130157E-06 -0.23304461E-06  0.25858922E-06

 -0.10724506E-05 -0.54861937E-06  0.20769398E-06  0.67546954E-06 -0.87324745E-06
 -0.51895059E-06  0.85058608E-07  0.94241546E-08 -0.80497627E-07 -0.94508280E-05
  0.41018459E-04 -0.48300691E-05  0.60269928E-05  0.48059370E-05 -0.24458593E-06
 -0.18609569E-04 -0.67414499E-05  0.11822947E-04 -0.16904938E-04 -0.65207604E-05
  0.46806153E-06  0.23726620E-04 -0.20293999E-04  0.71922090E-05 -0.22866660E-04
  0.10772203E-04  0.10797418E-04  0.47495388E-04  0.16849561E-04 -0.14353014E-04
 -0.31136841E-04  0.16401535E-04 -0.29722535E-05 -0.17453141E-04 -0.25295685E-04
 -0.11826157E-04 -0.80290478E-06 -0.98624157E-07  0.33053203E-06 -0.65118147E-06
 -0.67382860E-06  0.20812773E-06  0.34575555E-06 -0.82311290E-07  0.15917588E-06
 -0.44471937E-05  0.16899670E-04  0.63737479E-06 -0.66569708E-05 -0.19052196E-05
 -0.84719067E-05 -0.62419808E-05  0.64444832E-05  0.92531999E-05  0.15716438E-04
 -0.64860441E-05  0.13327685E-05  0.75449739E-04 -0.14900112E-04  0.44175169E-05
 -0.11176241E-04  0.10619257E-04  0.11929401E-05 -0.76561543E-07  0.77033251E-07
 -0.35816768E-06 -0.31747082E-06  0.49541375E-06 -0.41321433E-06 -0.19625178E-06
 -0.92865577E-07  0.26536419E-07 -0.27700756E-06 -0.89673815E-06  0.21205527E-06
 -0.55147498E-07 -0.64176525E-06 -0.14976985E-06  0.68658419E-07  0.20742530E-06
  0.58495443E-07  0.20668944E-07 -0.30211073E-06 -0.25523407E-07 -0.32816520E-06
  0.45852629E-06 -0.97340093E-07  0.34610558E-06 -0.74910523E-07 -0.20306058E-06
 -0.85860754E-05  0.11311187E-04 -0.47511215E-06  0.21821478E-05  0.62470320E-05
 -0.13228063E-05 -0.41409625E-05 -0.56510867E-06  0.13694964E-04 -0.43754411E-05
 -0.10664920E-05 -0.47615103E-06 -0.32045450E-05  0.15975134E-05  0.89192499E-06
 -0.16953891E-06 -0.81882209E-06 -0.22992962E-06 -0.22301920E-04 -0.11554280E-04
  0.23042295E-06  0.85581946E-05 -0.40245716E-04 -0.13403454E-04  0.30806064E-03
 -0.45343960E-05  0.37310842E-04  0.73031589E-06 -0.18723317E-06  0.74218690E-06
 -0.70367236E-06 -0.21780117E-06 -0.31448446E-06  0.41818663E-06 -0.49921843E-07
 -0.36420190E-06 -0.25448571E-05  0.15023270E-04 -0.90595488E-05 -0.28971561E-04
 -0.48635419E-04  0.18925443E-04  0.68064583E-05  0.40007099E-04 -0.12329411E-04
  0.26514815E-04  0.86270931E-05 -0.44038408E-05 -0.54313870E-04 -0.33023235E-04
  0.17617444E-04 -0.22930593E-04  0.27783048E-04 -0.24572041E-04  0.65674198E-05
  0.91791187E-05  0.39779803E-05 -0.55887426E-05  0.21227714E-04 -0.45017446E-05
  0.45096606E-04  0.18218614E-05  0.20196802E-04  0.35740668E-06 -0.37937824E-06
 -0.17993780E-06  0.26855110E-06 -0.41269145E-06 -0.27562876E-06  0.27152843E-06
  0.10870736E-06 -0.30379857E-06  0.11499850E-05  0.45401258E-06  0.11507055E-06
 -0.27513839E-06 -0.52464203E-06 -0.18421019E-06 -0.26642625E-06 -0.66926418E-07
  0.41998645E-07  0.31247731E-06 -0.20963888E-06  0.41857100E-06  0.15923313E-06
  0.62067677E-06 -0.53298640E-06 -0.44385012E-06 -0.17730037E-06  0.27560333E-06

  0.23655601E-06  0.36225720E-06 -0.42826376E-07  0.21536010E-06  0.14171730E-06
 -0.33416603E-06  0.13375128E-07  0.19070295E-06  0.32268637E-07  0.91000989E-05
  0.14991086E-05 -0.38646778E-05 -0.10534741E-04 -0.60128538E-07  0.11113918E-04
 -0.39704041E-05 -0.39395328E-05 -0.11325383E-04 -0.68150198E-05 -0.98153936E-05
 -0.14149005E-05 -0.27125943E-04  0.54248261E-05 -0.11455177E-04 -0.71552302E-05
 -0.12278092E-04  0.46006977E-05  0.22895907E-04  0.22860560E-05  0.13328565E-04
  0.90790064E-05  0.17596532E-05 -0.16992269E-04  0.12494012E-04  0.18491236E-04
 -0.15814743E-04  0.14901037E-06 -0.57623041E-06 -0.54789907E-06  0.29202627E-06
 -0.58068631E-06  0.34489432E-06 -0.38839426E-06  0.57020612E-07  0.19690160E-06
 -0.79325545E-05 -0.26574044E-05  0.32182844E-06  0.59306677E-05  0.84468309E-05
  0.28759875E-05 -0.19473718E-05  0.10212681E-04 -0.12869728E-04  0.99743729E-05
 -0.66381954E-05 -0.30139208E-06 -0.43433488E-04 -0.33708989E-05  0.43181077E-05
 -0.15211273E-04 -0.96046758E-05 -0.40819786E-06  0.56843414E-06  0.18929093E-07
 -0.19562397E-06 -0.71022612E-06 -0.59566650E-08 -0.20022415E-07  0.39053203E-07
 -0.25434935E-06  0.23871890E-06 -0.88442143E-06 -0.81560720E-07  0.31236028E-06
  0.99103740E-07  0.15515090E-06 -0.32726292E-06  0.93316230E-07 -0.24631971E-06
 -0.48497920E-07  0.11762448E-06  0.35855256E-06 -0.47651672E-06  0.40424605E-08
 -0.33037483E-06  0.24319275E-06  0.20444954E-06  0.15346528E-06  0.14386721E-06
  0.56976633E-05  0.63179408E-05 -0.22223821E-05  0.73743178E-05 -0.10470720E-04
 -0.11425456E-05 -0.41498577E-05 -0.74914642E-05  0.38445849E-05 -0.15757251E-05
 -0.13497219E-05  0.12737676E-05 -0.63703273E-06 -0.34056823E-06  0.77355064E-06
 -0.36537526E-06  0.16180188E-05  0.94982778E-06  0.10999237E-04 -0.28483007E-05
 -0.14033549E-04  0.35140060E-04 -0.21470277E-04  0.29161170E-04 -0.45343960E-05
  0.16340262E-03 -0.31648058E-05  0.16601198E-05  0.15541192E-05  0.39892158E-06
 -0.31683431E-06 -0.15908734E-05  0.24848581E-06 -0.16969412E-05  0.14967057E-07
 -0.67297062E-06  0.39526194E-04 -0.10291559E-04  0.27520898E-04  0.13267841E-04
 -0.30585618E-04 -0.14390413E-04  0.29466430E-05  0.99323555E-05 -0.14153259E-04
 -0.28626222E-04  0.32166688E-05 -0.77281063E-05  0.52014443E-04  0.24074075E-05
  0.14240497E-05  0.13348723E-04 -0.17199916E-04 -0.83935097E-05  0.13668375E-04
  0.72108360E-05 -0.46063727E-05  0.21042743E-04 -0.10937772E-04 -0.74216076E-05
  0.14575552E-04 -0.10791047E-04  0.15265137E-05 -0.42113462E-06  0.15894645E-06
 -0.12219532E-05  0.25768406E-06 -0.45585578E-06 -0.43712523E-07  0.10659590E-06
  0.14099387E-06  0.18997314E-06  0.20469376E-06 -0.31063083E-06  0.76543134E-06
 -0.35339772E-06 -0.97835801E-07  0.95039248E-07  0.28969002E-06 -0.47451147E-06
  0.26584169E-06 -0.11264968E-05 -0.11004572E-07 -0.25462738E-06 -0.62448933E-06
  0.37608409E-06 -0.67800419E-06 -0.11014211E-06  0.14450633E-06  0.29951153E-06

  0.33864244E-07 -0.16343311E-06  0.36564291E-06  0.10726587E-07  0.40349773E-07
 -0.21947009E-07 -0.28444471E-08 -0.15424419E-06  0.37391059E-06  0.12867411E-04
 -0.92730999E-05  0.62287284E-05  0.82926932E-05 -0.56576931E-05 -0.61293064E-05
 -0.17728904E-04 -0.85542648E-05 -0.21260651E-04  0.67901121E-05 -0.10270523E-04
  0.50672649E-05 -0.13102604E-04 -0.22634101E-04  0.83874566E-05 -0.10112074E-04
  0.57139296E-05 -0.26321031E-04  0.10663781E-04  0.19245439E-04 -0.25148396E-05
  0.16586446E-04 -0.13688549E-05 -0.11868832E-04 -0.11499227E-05 -0.47738907E-05
  0.80390935E-05  0.34836783E-06  0.59906976E-06  0.44027732E-07  0.18050150E-07
 -0.77306430E-06 -0.31522861E-07  0.12239652E-06 -0.11506039E-07 -0.97689406E-07
  0.20647319E-05  0.18476900E-04 -0.30024156E-04  0.39522376E-05 -0.27635952E-04
 -0.14444657E-04  0.47954424E-05  0.86527562E-05  0.99992914E-06  0.11448098E-04
  0.34311636E-04  0.24618325E-04  0.18485573E-04 -0.16873438E-05  0.79264017E-05
  0.75011859E-05  0.25081510E-04 -0.97158707E-06 -0.67944151E-07  0.16634197E-06
  0.10549747E-06 -0.76488032E-07 -0.12852153E-07 -0.55471994E-08 -0.16593393E-06
 -0.14803943E-07  0.21239196E-07 -0.17106346E-06 -0.25402841E-06  0.12836845E-06
  0.13574450E-06 -0.30621122E-06  0.39891696E-06 -0.34433599E-07  0.15938953E-06
 -0.31095876E-06  0.87713937E-07 -0.68530764E-06  0.21479143E-06  0.16978547E-06
 -0.16104885E-06  0.94791796E-07 -0.24992802E-06  0.73227250E-07  0.24788623E-06
  0.18677468E-04  0.41569772E-06  0.50199738E-05  0.25984978E-05  0.27280720E-05
  0.10178416E-06  0.39794798E-05 -0.35939670E-05  0.35631537E-05 -0.55105782E-06
 -0.11985047E-05  0.62467949E-06 -0.10838685E-05  0.78965084E-06  0.49720606E-06
  0.32295366E-06  0.41268897E-06  0.27149537E-06 -0.21135598E-05 -0.12795589E-04
 -0.10714428E-05  0.19279577E-05 -0.45552636E-04  0.41286124E-05  0.37310842E-04
 -0.31648058E-05  0.19128211E-03  0.21775070E-05  0.13305541E-05  0.17476523E-05
 -0.20707298E-06 -0.78327435E-06 -0.23817705E-06 -0.26342071E-06 -0.25735383E-06
 -0.40011273E-06  0.64181443E-05  0.22800133E-05 -0.24525292E-04  0.16637741E-05
 -0.15190858E-04  0.97966416E-05  0.25780210E-04  0.12609699E-04 -0.15871740E-04
 -0.10912450E-04 -0.27666812E-04 -0.20062898E-04 -0.22631336E-04  0.70035950E-05
  0.36317062E-04  0.11765170E-04  0.55215706E-05  0.12659497E-04  0.96849917E-05
  0.30244112E-04  0.10111010E-04  0.20724798E-04 -0.33505306E-04  0.16537573E-04
  0.11520660E-04 -0.75320790E-05  0.31367640E-04 -0.34156916E-06 -0.68611540E-06
 -0.25958353E-06  0.23220838E-06  0.33634535E-06 -0.22554639E-06  0.11998670E-06
  0.16580109E-06  0.31141958E-08 -0.18236570E-06  0.71310550E-06  0.22071112E-06
  0.33811560E-07 -0.73856680E-07  0.22607291E-06 -0.47506644E-07  0.15422663E-06
 -0.36272138E-06  0.11650664E-07  0.15128180E-06 -0.20573784E-06  0.23975003E-06
  0.37122541E-06 -0.49403917E-06 -0.29689625E-06 -0.40818013E-07  0.40695075E-06

  0.19502256E-07 -0.15546212E-07 -0.17281820E-07 -0.10495869E-06  0.32868462E-07
 -0.40418814E-07 -0.14156885E-07 -0.41620789E-07 -0.17733163E-07  0.80435293E-06
 -0.13770354E-05  0.10753470E-05  0.45997751E-05 -0.83118253E-06  0.61881528E-06
  0.13808408E-05 -0.25896340E-05 -0.22549909E-06  0.87089363E-06  0.12635984E-06
 -0.12690871E-07  0.17467996E-05 -0.38417235E-05 -0.17453063E-06 -0.20673976E-05
 -0.21346663E-05 -0.14430526E-05 -0.21854631E-05 -0.18834207E-05 -0.27689944E-05
 -0.26763889E-05  0.16675893E-05 -0.14169018E-05 -0.68936166E-06  0.27451758E-05
  0.27552899E-06  0.88100279E-08 -0.11128611E-06 -0.16220326E-07  0.13172615E-07
 -0.41770130E-07  0.10798216E-07  0.25806412E-08  0.60210653E-07  0.13059094E-07
 -0.26883093E-06 -0.26302717E-05 -0.12199496E-05 -0.39895887E-06 -0.18068357E-05
  0.71318057E-06  0.21594245E-05  0.96811629E-06 -0.28128533E-05  0.14281263E-05
  0.19542162E-05  0.17468280E-05  0.25739989E-05 -0.58772754E-06 -0.34458034E-07
  0.22317968E-05  0.99857798E-07 -0.22345901E-06  0.97553174E-08  0.86575594E-08
 -0.85300033E-08 -0.61685520E-07 -0.42185670E-08  0.17289084E-09  0.59761795E-07
 -0.24828395E-07 -0.17464389E-07 -0.40031865E-07  0.54146665E-07  0.20685632E-07
  0.25769986E-07 -0.64371592E-07 -0.11851744E-07 -0.25152183E-08  0.22102413E-08
  0.37196662E-08  0.30059409E-07  0.67421703E-07  0.31036034E-07 -0.70029079E-08
 -0.59004450E-07 -0.19982766E-07  0.15289654E-07 -0.23038785E-07  0.83413562E-08
 -0.85337861E-06 -0.74059313E-06  0.48202278E-06 -0.21381758E-05  0.14312836E-05
  0.11910218E-06  0.90305630E-07  0.40126848E-06  0.62904094E-06 -0.90015250E-07
 -0.12939621E-06  0.10013317E-07 -0.13195589E-06 -0.58899251E-07  0.81628486E-07
 -0.52523291E-07  0.25857533E-07  0.25620925E-07 -0.19723141E-05  0.11232886E-05
 -0.14210401E-05  0.34475452E-05 -0.17561462E-05 -0.39683309E-06  0.73031589E-06
  0.16601198E-05  0.21775070E-05  0.39456263E-05  0.16539028E-05 -0.16959927E-06
 -0.70024049E-06  0.49169759E-07  0.29825543E-06 -0.46281974E-06 -0.14637030E-06
 -0.15771526E-06  0.20734480E-04  0.91035660E-05  0.98212414E-05  0.12732349E-04
 -0.95395659E-05 -0.14055801E-04  0.16207424E-04  0.12262954E-04  0.40852567E-05
 -0.15277809E-05  0.13030443E-05 -0.89379580E-05  0.16137911E-04  0.62358464E-05
 -0.11635972E-04  0.70147526E-05  0.24986943E-05  0.25689837E-05 -0.47302427E-06
 -0.15242712E-05  0.49736266E-06  0.23250757E-05 -0.15835848E-05 -0.41034589E-06
 -0.13634237E-05  0.42141967E-05 -0.93566305E-06 -0.57302008E-07 -0.10884109E-06
 -0.66383057E-07 -0.23709796E-07 -0.63054627E-07 -0.52813039E-07 -0.39634473E-08
 -0.36502043E-07  0.97378156E-08  0.99893392E-09 -0.27865704E-07  0.22297010E-07
 -0.16060494E-07 -0.25113752E-07  0.11014475E-07 -0.30602643E-07  0.20672271E-07
  0.99408166E-08  0.72402049E-07  0.37815998E-09 -0.73005509E-08  0.58497626E-07
 -0.22410587E-07 -0.10182094E-06 -0.66052099E-07 -0.14265665E-07  0.51172084E-07

  0.58693961E-07  0.14595477E-06  0.36984424E-07  0.14378117E-07 -0.10427247E-07
 -0.50457704E-07  0.43960927E-07 -0.78670665E-08  0.18956107E-07  0.34953733E-06
 -0.22189248E-05  0.28849420E-06  0.38565907E-06  0.34223972E-05  0.97945606E-06
  0.43530248E-06 -0.71717215E-06 -0.14852541E-05 -0.18066865E-05 -0.87317927E-06
 -0.82216293E-06  0.12381475E-05 -0.58508870E-05  0.99484868E-07 -0.15118963E-05
 -0.16673658E-05  0.26049802E-06 -0.18919693E-05 -0.64718215E-06 -0.25036017E-05
 -0.15084445E-05 -0.42153803E-06 -0.21964642E-08 -0.41865021E-06  0.24867840E-06
 -0.22510668E-06 -0.15047043E-07 -0.14622250E-06 -0.28504202E-07 -0.43430967E-07
 -0.22071024E-07  0.11304697E-07 -0.13772197E-07  0.90047329E-08  0.85403830E-08
 -0.55615499E-06 -0.16323874E-05  0.50222091E-06 -0.95237816E-06 -0.42858193E-07
  0.10353513E-05  0.17961609E-05 -0.42519382E-06 -0.98002166E-06  0.11115694E-05
  0.70180333E-06  0.31342011E-06  0.25163009E-06 -0.14611103E-05  0.38108577E-06
 -0.10496404E-05 -0.24922163E-06  0.79567272E-07 -0.21939902E-07  0.22641584E-07
  0.27554117E-07 -0.17537168E-07  0.28322223E-07 -0.23761257E-08  0.43172961E-07
 -0.14950159E-07 -0.15160647E-07  0.18582615E-07  0.50927856E-07  0.19738331E-07
  0.58448800E-08 -0.36334789E-07 -0.51524915E-08  0.50848355E-07 -0.17777822E-07
 -0.39695134E-08  0.63199039E-07  0.40079298E-07  0.21667586E-07  0.16828511E-07
 -0.47161319E-07 -0.22621314E-07 -0.23324697E-07  0.66462520E-08 -0.35553576E-08
 -0.15731647E-05  0.82955277E-06  0.72162309E-06 -0.89762011E-06  0.26287730E-06
  0.46513718E-06 -0.94310587E-06 -0.17434304E-06  0.42634995E-06 -0.19222068E-07
 -0.16064931E-06  0.56378256E-09 -0.30123135E-07 -0.33790147E-08  0.43108383E-07
 -0.52891965E-07  0.31907796E-07  0.68509251E-07 -0.11548414E-05 -0.14079562E-05
 -0.52869188E-06  0.27499671E-05 -0.27070865E-05 -0.13734302E-07 -0.18723317E-06
  0.15541192E-05  0.13305541E-05  0.16539028E-05  0.31386704E-05 -0.50968155E-07
 -0.39216429E-06 -0.12796988E-06  0.25212531E-06 -0.45221334E-06 -0.81593632E-07
 -0.27236340E-06  0.14270969E-04  0.10698169E-05  0.64345877E-05  0.13842340E-04
 -0.14850473E-04 -0.11538863E-04  0.21026011E-05  0.92188817E-05  0.24741786E-06
 -0.42130381E-05 -0.11411745E-05 -0.77431629E-05  0.16258636E-04  0.13728258E-04
 -0.12642757E-04  0.10343655E-04  0.46482609E-05  0.34059239E-05 -0.18428110E-05
 -0.34568861E-06  0.11006871E-05  0.40595632E-05  0.11596839E-06 -0.28545499E-05
  0.26324324E-05  0.31267239E-05 -0.13187645E-05 -0.19923632E-07 -0.91144461E-07
 -0.44505978E-07 -0.12511437E-07 -0.15943998E-07 -0.38423057E-07 -0.28674789E-07
 -0.46249471E-07  0.31047851E-07  0.35331134E-07 -0.47720757E-07 -0.29336534E-08
 -0.19698539E-07  0.98858546E-07 -0.32695692E-08 -0.43237126E-07  0.22104728E-07
  0.89166367E-08  0.29662145E-07  0.39996889E-07 -0.31436297E-07  0.80079134E-08
 -0.93895512E-07 -0.25773124E-07 -0.30547626E-07  0.95902330E-08  0.73411727E-08

  0.30065399E-08 -0.38776440E-08  0.89667764E-07  0.17702278E-07 -0.11240910E-07
 -0.27184722E-07 -0.15374907E-08 -0.65775412E-07  0.38179290E-07 -0.12173800E-06
  0.62570065E-06 -0.11702530E-05  0.15169081E-06  0.31733933E-06 -0.39474025E-06
 -0.86231086E-06 -0.16250650E-05 -0.80304869E-06 -0.96750525E-06  0.10331664E-05
  0.47242889E-07  0.34988502E-06 -0.12606988E-05  0.37119369E-07  0.23152467E-06
 -0.85122719E-06 -0.21714690E-05  0.69877925E-06 -0.31545441E-06  0.33972989E-06
  0.59589703E-06 -0.58947726E-06 -0.18721595E-06 -0.13862408E-05 -0.16186222E-05
 -0.34679932E-06  0.32441346E-07  0.57028308E-07 -0.22858957E-07 -0.22670385E-07
  0.54492193E-07 -0.29376291E-07 -0.20218509E-07 -0.22308549E-07 -0.12159823E-07
 -0.19624213E-06 -0.71910041E-06  0.40995083E-07  0.81886743E-06 -0.11452528E-05
 -0.13536777E-05  0.62892690E-06 -0.24716326E-06 -0.38633458E-07  0.13040079E-06
  0.44895924E-06  0.41641731E-07  0.34928750E-06 -0.13726175E-05  0.11875786E-05
  0.89460855E-08  0.13013981E-05 -0.11690683E-06  0.42284586E-07  0.49853195E-07
  0.11237472E-07  0.14019954E-07 -0.11233925E-07 -0.17848757E-07  0.20009312E-07
  0.92550254E-08  0.29134264E-07 -0.12278988E-07 -0.18367103E-07  0.74873086E-08
  0.15431031E-07 -0.25391920E-07  0.22687902E-09  0.21289948E-07 -0.26849566E-07
 -0.33111228E-07 -0.59030959E-08  0.99786245E-08 -0.50790873E-07 -0.28899604E-07
 -0.63533617E-08  0.42782315E-07  0.30075659E-07  0.17668423E-09  0.47717303E-08
 -0.21416631E-06  0.10686929E-05  0.91133748E-06  0.59741349E-06  0.30346372E-06
  0.97140017E-06  0.41720157E-06 -0.23517846E-06 -0.28932831E-08  0.30174087E-07
 -0.44339768E-07 -0.23568116E-07 -0.35263967E-07  0.10640162E-07  0.29375430E-08
 -0.26656099E-07  0.72698496E-08  0.15470483E-07 -0.56380398E-06 -0.60959870E-06
 -0.74701424E-06  0.16807036E-06 -0.93175853E-06  0.13697611E-05  0.74218690E-06
  0.39892158E-06  0.17476523E-05 -0.16959927E-06 -0.50968155E-07  0.16084353E-05
  0.55391283E-07  0.18969816E-07 -0.35503942E-07 -0.69455307E-07 -0.87334878E-07
  0.10495676E-07  0.32049336E-05  0.17190912E-05 -0.59767816E-05  0.28880461E-05
 -0.12295665E-05 -0.27138347E-05  0.18762310E-05 -0.44781058E-05 -0.60224629E-05
 -0.51929676E-07 -0.15776271E-05  0.44060484E-05 -0.11819729E-04 -0.64616580E-05
  0.70397954E-05 -0.50143133E-05  0.25734501E-05 -0.29997453E-05 -0.15184522E-05
  0.16992763E-05  0.23925702E-05  0.83578421E-05  0.19529635E-05 -0.27118249E-05
  0.54184603E-05  0.33088014E-05 -0.89406745E-06 -0.37820916E-08 -0.25368025E-07
 -0.49555437E-08 -0.16622737E-07 -0.13838423E-07  0.19934873E-08  0.47337671E-08
  0.20478163E-07 -0.78775145E-08 -0.14585370E-07  0.31992973E-07 -0.11222222E-07
  0.92214715E-09 -0.41643868E-08  0.73865293E-08  0.39447943E-08 -0.30686562E-08
  0.13416997E-07 -0.21457795E-07  0.22325584E-07 -0.26676338E-07  0.45030611E-08
  0.20352914E-08 -0.85570730E-08  0.15634149E-07 -0.22066740E-07  0.21989779E-07

  0.62026081E-07 -0.10496150E-06 -0.12264615E-07  0.59156507E-07  0.51189134E-09
  0.63251285E-07 -0.17997252E-07  0.37414318E-07  0.76850221E-08 -0.29211954E-05
  0.10592844E-05 -0.67052400E-06 -0.26469985E-06 -0.18200046E-05  0.10050225E-05
 -0.15687995E-05  0.65519359E-06  0.33498446E-06 -0.14887697E-05  0.55500058E-06
 -0.21221656E-06 -0.15825948E-05  0.14976646E-05 -0.13262117E-07 -0.22417692E-05
  0.78655928E-06 -0.59607518E-06 -0.29926762E-07  0.15187237E-05  0.17260134E-05
  0.33094278E-06 -0.19162377E-06  0.54710811E-06 -0.18071287E-06  0.28274134E-06
 -0.91643921E-06 -0.25071228E-07  0.45210981E-07 -0.30329474E-07 -0.49050042E-07
  0.21449352E-07  0.27297370E-07 -0.50307869E-07  0.42368185E-07 -0.21776005E-07
  0.11265554E-05  0.23969715E-05 -0.75143177E-06 -0.71161564E-06  0.13738024E-05
 -0.48472496E-06 -0.12719693E-05 -0.19680587E-06  0.11182194E-05 -0.37206947E-06
 -0.94461346E-06 -0.53297139E-06  0.24000877E-05 -0.25568431E-06 -0.59536447E-06
 -0.17703648E-05 -0.60398380E-07 -0.18310864E-06  0.22505327E-07  0.45758814E-07
  0.31887818E-07 -0.30112140E-07 -0.18283713E-10  0.63242076E-07 -0.16372700E-07
  0.28877965E-07  0.65438135E-08 -0.42040322E-07 -0.39271674E-08 -0.34685469E-07
  0.56412414E-07  0.49908385E-07  0.11948381E-07  0.29905912E-07  0.34279588E-08
  0.41435952E-08 -0.34532394E-07  0.77257424E-08 -0.20463506E-07  0.25350674E-08
  0.85075099E-07  0.39319697E-07  0.35084949E-07  0.71747139E-08 -0.64149424E-08
  0.24717031E-06  0.26029549E-06  0.24335998E-06 -0.48038922E-06 -0.32102446E-06
 -0.54417910E-06 -0.14604286E-07 -0.69394598E-06 -0.44839919E-06  0.15116925E-06
  0.15392787E-06  0.17652674E-07  0.14613631E-06 -0.48513852E-07 -0.16039325E-07
 -0.96532704E-08 -0.19295274E-07  0.25981712E-07 -0.50802834E-06  0.31039234E-06
  0.78600643E-06 -0.33426234E-05  0.12587578E-05  0.83664296E-06 -0.70367236E-06
 -0.31683431E-06 -0.20707298E-06 -0.70024049E-06 -0.39216429E-06  0.55391283E-07
  0.31099712E-05 -0.46030877E-06 -0.57004555E-06  0.89585555E-06 -0.90766495E-07
 -0.16829537E-07 -0.92378751E-05 -0.86317019E-05 -0.58815721E-05  0.56594205E-05
  0.11339025E-05  0.72537510E-05 -0.10444419E-04 -0.46421784E-05 -0.44936362E-05
  0.20549171E-05  0.14358345E-06  0.75196557E-05 -0.67938638E-05 -0.30409287E-05
  0.58558497E-05 -0.33657918E-05 -0.89641119E-05 -0.44934294E-05  0.19482743E-05
  0.11117737E-05 -0.35212635E-05 -0.56715409E-05  0.10068355E-05  0.19669971E-05
 -0.20738638E-05 -0.16936038E-05  0.25486594E-05  0.77181528E-08  0.55110630E-07
 -0.55651924E-08  0.15585289E-07  0.50099128E-07  0.58139814E-07 -0.25456728E-07
 -0.46204445E-08 -0.63499976E-08 -0.35971212E-07  0.12398438E-07 -0.16986650E-07
 -0.20155108E-09  0.43724419E-07  0.25505953E-07 -0.28297704E-07 -0.19785894E-08
  0.13387422E-07 -0.10989066E-06  0.17718021E-07  0.48593999E-07 -0.42609810E-07
  0.10595744E-06  0.35084728E-07 -0.44533634E-08  0.57142770E-07 -0.58218089E-07

 -0.56494669E-07 -0.13246619E-06  0.42174442E-07  0.65947444E-08 -0.11381836E-06
  0.66967511E-07 -0.38870000E-07 -0.82437795E-09  0.34704062E-07 -0.11600593E-06
  0.24622625E-06  0.28140951E-06  0.72358451E-07 -0.16162370E-05 -0.51238724E-06
 -0.91583514E-06  0.38250805E-06  0.69451660E-06  0.42584758E-06 -0.87667829E-06
 -0.60305183E-06  0.12403305E-05  0.96342417E-06 -0.36981201E-06 -0.37855158E-06
  0.67542436E-06  0.45330512E-06 -0.46697770E-06 -0.20126593E-05  0.14779015E-06
  0.24153056E-06 -0.16308889E-05  0.71559608E-06  0.43937040E-06 -0.42342016E-06
  0.88059994E-06 -0.34659984E-08  0.58181931E-08  0.22382351E-07  0.57513848E-07
  0.41486168E-07  0.35080190E-08  0.21957062E-08 -0.26938416E-07 -0.47557856E-07
 -0.48675057E-06 -0.17537947E-05  0.11137488E-05  0.40859592E-06  0.65228338E-06
 -0.27232177E-07 -0.45577251E-07  0.19607561E-06  0.11715075E-05 -0.73789239E-06
  0.12429855E-05 -0.49183065E-07  0.17557645E-05  0.77356780E-06 -0.61829197E-06
  0.12513660E-05  0.20464389E-06 -0.69483891E-06  0.59832973E-08 -0.26335529E-07
  0.14179776E-08  0.14741992E-07 -0.15334900E-07 -0.23763199E-08 -0.82864678E-08
 -0.51952240E-08 -0.15507267E-07  0.53340387E-07 -0.45075412E-07  0.27494992E-07
  0.56821723E-07 -0.30240792E-07  0.18215381E-07  0.27708204E-07 -0.42141397E-08
  0.20433024E-07  0.95004733E-08 -0.42215045E-07  0.31118188E-07  0.18315241E-07
 -0.35295350E-07  0.25024908E-07  0.26080167E-07  0.12486957E-07  0.79134358E-08
 -0.22316086E-06  0.12986794E-06 -0.10574923E-05  0.35574679E-06 -0.12550124E-05
 -0.11133141E-06  0.52770853E-06  0.86005310E-09 -0.71756152E-06 -0.21453464E-07
 -0.25671960E-08 -0.99207461E-08 -0.24496363E-07  0.77932807E-07  0.32238258E-07
 -0.27672518E-07  0.12357215E-07 -0.49389194E-07 -0.34690718E-06 -0.12805571E-05
  0.61357983E-06 -0.62867182E-06  0.19976235E-05 -0.14222492E-05 -0.21780117E-06
 -0.15908734E-05 -0.78327435E-06  0.49169759E-07 -0.12796988E-06  0.18969816E-07
 -0.46030877E-06  0.26373483E-05 -0.39207455E-06  0.10236448E-05 -0.43710078E-07
 -0.50016981E-07 -0.95062936E-06  0.94718886E-05  0.58834916E-06 -0.38061935E-05
  0.98371940E-05 -0.41995395E-06  0.98712905E-05 -0.11084251E-05  0.59836729E-05
  0.61067552E-06 -0.30510932E-05 -0.62562218E-06  0.89723928E-06  0.54707187E-05
 -0.45917500E-05  0.13486386E-05  0.13388732E-06 -0.44398747E-05  0.87907033E-06
 -0.96308954E-06  0.17847727E-05 -0.21513605E-05  0.32009245E-05 -0.21826114E-05
 -0.19644190E-05 -0.24211009E-07  0.18345409E-06 -0.35220439E-08  0.75541056E-07
  0.51727729E-07  0.17804095E-07 -0.97458225E-07  0.43063696E-07 -0.29644282E-08
  0.40653290E-08  0.99760047E-09 -0.39027040E-07  0.62195644E-07 -0.25141050E-07
  0.50030773E-07  0.25924952E-07 -0.78692436E-09 -0.62598857E-08 -0.28524049E-08
  0.50880607E-08  0.43148751E-07  0.57225057E-07  0.40668653E-07  0.76617369E-07
  0.30406168E-07  0.41348989E-07  0.12497167E-07 -0.13243248E-07 -0.52100244E-07

  0.32194544E-07  0.46764725E-07 -0.15180606E-07  0.49636597E-07  0.45933041E-07
 -0.72514329E-07  0.30444753E-07 -0.17321515E-07 -0.62517546E-08  0.90662487E-06
 -0.12020760E-05  0.56301392E-06 -0.10014123E-05  0.90972848E-06  0.38363702E-06
 -0.40188815E-06 -0.14684238E-06 -0.46613015E-08 -0.82907054E-06 -0.42688665E-06
  0.23698489E-06  0.24557314E-06 -0.73634971E-06 -0.12721353E-06  0.83373034E-06
 -0.20052205E-06 -0.46929365E-06  0.81548792E-06  0.10233702E-06 -0.10333030E-05
 -0.16167752E-06  0.54335784E-06 -0.15985669E-05  0.54260060E-07 -0.65161224E-06
 -0.41510773E-06  0.20310625E-07 -0.25082487E-08 -0.53585062E-08 -0.32812345E-08
  0.32842561E-07  0.20288674E-07  0.11432210E-07  0.20817335E-09 -0.63540097E-08
 -0.53159204E-07 -0.62875866E-06  0.34508724E-06  0.52046696E-07 -0.81904571E-07
  0.28685940E-06 -0.21352561E-06 -0.10033667E-07  0.37029593E-06  0.77387196E-06
  0.63175771E-06 -0.59403288E-06 -0.90242300E-06 -0.52178693E-06  0.28353055E-06
 -0.27523695E-07 -0.81506096E-06 -0.20529203E-07 -0.63321034E-08  0.40166322E-08
 -0.34335522E-07  0.44012958E-07 -0.31159804E-09 -0.14832575E-07  0.43476926E-08
  0.21665235E-08  0.10859104E-07 -0.12475037E-07  0.18824889E-07  0.41411903E-09
  0.12297774E-07  0.80393567E-08  0.28042660E-07 -0.73646278E-08  0.50177088E-08
 -0.20410022E-07  0.19935110E-08  0.17770272E-08  0.34476262E-07  0.41461382E-07
 -0.12705230E-07 -0.72169756E-08 -0.11549430E-07  0.17566211E-08  0.27728839E-08
 -0.30270920E-06  0.44082080E-06  0.52137693E-06  0.11579500E-06  0.36391747E-06
  0.27553542E-07 -0.27013285E-06 -0.34024660E-06  0.78468501E-06  0.84100991E-08
 -0.25440568E-07  0.13089224E-07  0.10126948E-08  0.17799154E-07 -0.46073988E-09
 -0.15032345E-08 -0.18716783E-08 -0.36260336E-08 -0.32954080E-06 -0.41693981E-06
  0.43957432E-07  0.36197017E-06 -0.77150781E-06  0.82613944E-06 -0.31448446E-06
  0.24848581E-06 -0.23817705E-06  0.29825543E-06  0.25212531E-06 -0.35503942E-07
 -0.57004555E-06 -0.39207455E-06  0.95259582E-06 -0.28439889E-06 -0.24211104E-07
  0.16389015E-07  0.45600993E-05  0.19321251E-05  0.31712742E-05  0.24039413E-05
 -0.23702809E-05 -0.43808884E-05  0.22500477E-05  0.45396051E-05  0.20928464E-05
 -0.12211709E-06  0.12402060E-05 -0.47695177E-05  0.84641514E-05 -0.64532526E-06
  0.60738595E-06  0.21293831E-05  0.28198779E-05  0.54059123E-05 -0.23066864E-06
  0.17062082E-05  0.16494094E-05  0.32411502E-05 -0.10488258E-05  0.11784972E-05
  0.28789761E-05  0.11858515E-05 -0.33754239E-05  0.21104890E-08 -0.12255218E-07
  0.26651487E-07  0.17618039E-07  0.19914524E-07 -0.19954481E-07  0.26680676E-08
 -0.21049208E-07  0.11460178E-07 -0.30800080E-08  0.10155459E-07 -0.63049200E-08
  0.40130934E-08  0.27152060E-07  0.39251527E-07 -0.32914374E-08 -0.33216334E-08
  0.55586915E-08  0.62645380E-08  0.13253248E-07 -0.35974379E-07  0.10904260E-07
  0.14056753E-07  0.19567743E-08 -0.93152072E-08  0.15836452E-07  0.80755101E-08

  0.33550175E-07 -0.23984697E-06 -0.98348830E-08  0.35378994E-08  0.59124848E-11
  0.48085066E-07 -0.12779523E-06  0.26714317E-07  0.31600630E-07 -0.22540947E-05
 -0.17562350E-06  0.19786177E-06 -0.52895285E-06 -0.25740857E-05 -0.20090542E-06
  0.19549566E-07  0.51508297E-06  0.61354892E-06 -0.11934288E-05 -0.15187375E-05
 -0.94279943E-06 -0.54752176E-06  0.14868199E-05 -0.37995358E-06 -0.13946196E-05
  0.94283551E-06 -0.56322080E-06  0.57072421E-07 -0.91943270E-06  0.25648698E-06
  0.33327942E-06 -0.15653133E-05  0.91589170E-06  0.15680957E-05 -0.21318109E-06
 -0.87017419E-06 -0.84011262E-08  0.27345987E-07 -0.12243947E-07  0.53770783E-07
  0.46268967E-07 -0.15920467E-07 -0.20778234E-07 -0.16479933E-07 -0.46096921E-07
  0.42466884E-06 -0.11928710E-05  0.44797096E-06 -0.64656339E-06  0.13553166E-05
 -0.11042339E-06 -0.14197375E-05 -0.26396478E-06  0.11804414E-05 -0.36698853E-06
 -0.82462024E-07 -0.65730413E-06  0.19564292E-05 -0.68741642E-06 -0.54044108E-06
  0.30654683E-06 -0.54005464E-06 -0.91648900E-06 -0.15204035E-07 -0.47347396E-08
  0.35799475E-09  0.10847531E-07 -0.28041062E-07  0.15091857E-07  0.61189195E-08
  0.41711543E-08  0.99266009E-08  0.19739994E-07 -0.41902996E-07 -0.20103569E-08
  0.56975718E-07  0.40166272E-07  0.10644790E-09 -0.16274463E-07  0.66115830E-08
  0.18828263E-07 -0.41241583E-07 -0.41905569E-07  0.64409549E-08 -0.15119106E-07
  0.35360199E-07  0.16904004E-07  0.21811406E-08  0.46120469E-08  0.12930204E-07
  0.60689210E-07  0.12970390E-05 -0.48392301E-06 -0.14890580E-06  0.67867941E-07
 -0.28807694E-06 -0.20893873E-06 -0.58908173E-06 -0.60757643E-06  0.26604651E-07
  0.12818180E-06 -0.33820449E-07  0.27076785E-07 -0.90143259E-08 -0.36131834E-08
  0.53979484E-08 -0.21875356E-07 -0.48039685E-07 -0.15563501E-06  0.14403433E-06
  0.82234144E-06 -0.25522955E-05  0.17820275E-05 -0.54741689E-06  0.41818663E-06
 -0.16969412E-05 -0.26342071E-06 -0.46281974E-06 -0.45221334E-06 -0.69455307E-07
  0.89585555E-06  0.10236448E-05 -0.28439889E-06  0.20324301E-05 -0.31882425E-07
 -0.35293907E-07 -0.87757734E-05  0.27643545E-05 -0.26734639E-05 -0.34190421E-05
  0.12734076E-04  0.41707749E-05  0.20001514E-05 -0.34672851E-05  0.25386862E-05
  0.94381112E-06  0.34991415E-06  0.23748355E-05 -0.90090767E-06  0.24802669E-05
  0.30444560E-06 -0.12874577E-05 -0.47870623E-05 -0.28818431E-05  0.13406203E-05
  0.68992983E-06 -0.22458939E-05 -0.45801152E-05  0.11620529E-05  0.16637162E-05
 -0.10205709E-05  0.33771207E-06  0.20179992E-05 -0.20478676E-07  0.13871636E-06
  0.39013157E-07  0.24778884E-08 -0.20314395E-07  0.32329517E-07 -0.54814007E-07
  0.20850862E-08  0.53626303E-08 -0.60522452E-07  0.78481607E-07 -0.13604070E-07
  0.25230605E-07  0.42156904E-07  0.64103569E-08 -0.37496748E-07 -0.17431698E-07
  0.23241719E-07 -0.18502981E-07  0.25635808E-07  0.37982652E-07  0.16633173E-07
  0.69769733E-07  0.38455909E-07 -0.19993399E-08  0.15061098E-07 -0.77897408E-07

 -0.19494716E-08 -0.82534179E-08 -0.75501436E-08 -0.22689431E-07  0.54747959E-09
 -0.26946607E-09 -0.24212269E-08 -0.52953621E-07 -0.64514855E-07 -0.72180739E-07
  0.52722571E-06  0.15383532E-05 -0.17933898E-06  0.31709941E-06 -0.99762121E-06
  0.31118946E-06 -0.10934705E-05  0.17043572E-05  0.96745112E-06  0.17369951E-06
  0.12266029E-05 -0.20804164E-05  0.92257978E-06  0.16976150E-06 -0.12441064E-05
  0.41322396E-06 -0.23791797E-06  0.47874894E-07 -0.13768479E-06  0.10685593E-05
 -0.11994188E-07 -0.83888716E-07 -0.48340485E-06  0.11647654E-05  0.13143415E-05
  0.23645677E-06 -0.16994081E-07 -0.28556530E-07 -0.52191275E-07 -0.36514660E-07
  0.17663138E-07  0.16364246E-07 -0.77589462E-08 -0.34149233E-07 -0.18301831E-09
  0.21006628E-06 -0.18262205E-06 -0.46281204E-06  0.21699970E-06  0.94424586E-06
 -0.60854652E-06  0.92220235E-07  0.23117305E-06 -0.17721278E-06  0.37746530E-06
 -0.25000781E-06 -0.23634616E-06  0.11645210E-05 -0.53239576E-06  0.20368665E-06
 -0.54260507E-06  0.80703928E-07  0.49637660E-06  0.95380862E-08 -0.40797870E-07
  0.29730068E-07  0.35229992E-07 -0.12886788E-07 -0.62617582E-10 -0.41791085E-07
  0.22448300E-07 -0.64121347E-08  0.14984378E-07  0.21914105E-07  0.37565726E-07
 -0.12251542E-07 -0.19330399E-07 -0.21492426E-08  0.15260511E-08  0.22569040E-07
 -0.34299117E-08  0.11232621E-08  0.14473988E-07 -0.38415240E-07  0.17318323E-07
  0.23140664E-07 -0.40818038E-07  0.11175862E-07 -0.33763218E-07  0.16462147E-07
  0.88044166E-06 -0.30118377E-06  0.28172589E-06  0.56874500E-06 -0.11293690E-06
  0.17146128E-06  0.18089465E-06 -0.44267496E-06  0.74462098E-07  0.62842454E-07
 -0.17678205E-07 -0.71775927E-07 -0.45228937E-08 -0.75154773E-08  0.95778537E-08
 -0.38293967E-08  0.29475386E-09 -0.39814770E-07  0.58700447E-06  0.60204408E-06
  0.12135002E-06  0.49614976E-06 -0.80912336E-06  0.32578954E-06 -0.49921843E-07
  0.14967057E-07 -0.25735383E-06 -0.14637030E-06 -0.81593632E-07 -0.87334878E-07
 -0.90766495E-07 -0.43710078E-07 -0.24211104E-07 -0.31882425E-07  0.12355328E-05
  0.39758893E-06 -0.39424745E-05 -0.15124440E-05  0.30557258E-05 -0.37214378E-05
 -0.92421753E-06  0.69277705E-05 -0.31258090E-05  0.42304836E-05  0.23284617E-05
  0.50389920E-06 -0.18526381E-05  0.25258467E-05 -0.42871810E-05 -0.26150505E-05
  0.14139805E-05 -0.45034650E-05  0.19288129E-05 -0.24326653E-05  0.11013675E-05
  0.85986316E-06  0.52280403E-06 -0.10341722E-05 -0.22451496E-06  0.12158801E-05
  0.12008487E-05  0.30576158E-05  0.88602452E-06  0.17649645E-07 -0.16368499E-07
 -0.53984339E-08  0.53169767E-08 -0.66875945E-08  0.65426450E-08 -0.35708963E-08
 -0.27497523E-07 -0.89412274E-08 -0.50120096E-08 -0.51604408E-07  0.12682887E-08
  0.19260884E-07 -0.13272768E-07 -0.20831263E-07  0.17868851E-07  0.13192711E-07
 -0.10593091E-07  0.10625986E-07  0.98023840E-08 -0.82220534E-08 -0.20886047E-07
  0.21585418E-08 -0.17184710E-07  0.59287017E-08 -0.26768060E-07  0.14479317E-07

 -0.85690906E-08 -0.52672406E-07  0.81475493E-09 -0.46056406E-07  0.21443480E-07
  0.14101594E-07 -0.17707765E-07 -0.50346333E-07 -0.79284057E-07 -0.39859316E-06
 -0.69319964E-06 -0.50141083E-06  0.16954561E-06 -0.32413062E-07 -0.65461174E-06
  0.41566870E-06 -0.78669455E-07  0.34581835E-06  0.70105902E-06  0.30664129E-06
  0.22949124E-05 -0.84525163E-06 -0.96390728E-06 -0.45872916E-06 -0.11289297E-05
 -0.53600427E-06 -0.25115813E-06  0.19402836E-06 -0.13603625E-06  0.16184883E-05
 -0.68516978E-06  0.92414986E-06 -0.41074680E-06  0.30344998E-06  0.16086651E-05
  0.70734904E-06  0.55158032E-08 -0.14174017E-07 -0.16474076E-07 -0.35158772E-08
  0.13620226E-07  0.20606213E-07 -0.43060303E-08  0.31556340E-08 -0.18490047E-07
  0.45934288E-06 -0.10123628E-05 -0.19497020E-06 -0.84483756E-07  0.10695833E-05
 -0.48020116E-07  0.17304083E-06  0.68591147E-07 -0.11713365E-05 -0.11177580E-07
  0.10519359E-06 -0.47297100E-06  0.92353085E-06 -0.31296947E-06 -0.54514123E-06
  0.35938298E-06 -0.45970709E-06  0.34359312E-06 -0.14285294E-07  0.75835072E-08
  0.17518800E-07  0.10566029E-07 -0.33297769E-07  0.20073503E-07 -0.10028339E-07
  0.26033674E-07  0.77035861E-08  0.88772086E-09 -0.11373137E-07 -0.40777764E-08
 -0.66915590E-08  0.39508563E-08  0.15429391E-07 -0.96766480E-08 -0.13373549E-08
  0.49764126E-07 -0.73357812E-08  0.31828654E-07  0.22852269E-07  0.10209033E-07
  0.37302625E-08 -0.21190809E-07 -0.57279191E-08 -0.25838511E-07  0.12539475E-07
  0.45789071E-06 -0.50615593E-06  0.79614240E-06 -0.91122234E-06  0.93807635E-06
  0.41047845E-06  0.46890628E-08  0.23061854E-06  0.47157373E-06  0.53662523E-08
  0.19454968E-08 -0.51669241E-07  0.19623469E-07  0.38805571E-08 -0.26031595E-07
  0.29034768E-07  0.15265400E-07 -0.18571021E-07  0.92320147E-06  0.13082837E-05
 -0.63834218E-07 -0.84572485E-07  0.42226127E-06 -0.18824325E-06 -0.36420190E-06
 -0.67297062E-06 -0.40011273E-06 -0.15771526E-06 -0.27236340E-06  0.10495676E-07
 -0.16829537E-07 -0.50016981E-07  0.16389015E-07 -0.35293907E-07  0.39758893E-06
  0.10970417E-05 -0.43390192E-05 -0.55956138E-07  0.17310469E-05 -0.40262742E-05
  0.22088660E-05  0.59002138E-05 -0.85147920E-06  0.25397231E-05  0.94255955E-06
 -0.13980360E-05 -0.12582408E-05  0.48326580E-05 -0.52195318E-05 -0.56287036E-05
  0.40094830E-05 -0.31744295E-05 -0.37403929E-05 -0.25087339E-05  0.38624200E-06
  0.19614302E-05  0.34663913E-05  0.27498867E-05  0.17940802E-05 -0.13531970E-05
  0.12115529E-05  0.82156653E-06 -0.32351328E-05  0.16076808E-07 -0.15622677E-07
  0.10090932E-07  0.21137270E-07 -0.93385226E-08  0.10749054E-08  0.64838842E-08
 -0.12802297E-07  0.16578649E-07  0.97789228E-08 -0.42541873E-07 -0.11032559E-07
  0.14920596E-09  0.30137387E-08 -0.97472513E-08  0.11256591E-07  0.92086405E-08
 -0.19116138E-08  0.22780650E-07 -0.20229105E-07  0.10648046E-07  0.44536693E-08
 -0.42548379E-07 -0.70147576E-08  0.20001320E-08 -0.46515362E-08  0.95061586E-08

  0.37597383E-06  0.47783808E-06  0.20748536E-06  0.12514904E-05 -0.17158369E-06
 -0.83403205E-06  0.74874792E-06 -0.39779931E-06 -0.49592873E-06  0.26113831E-04
  0.11581890E-04  0.14748061E-04  0.73934587E-07  0.10614760E-04  0.18562995E-04
 -0.62826949E-05 -0.23040612E-04 -0.57657530E-05 -0.56510513E-04  0.80536530E-05
  0.28916253E-04  0.26442234E-04 -0.42270149E-04 -0.26666469E-05  0.17274825E-05
 -0.10045873E-04  0.25872804E-05 -0.11275781E-04 -0.34065865E-05 -0.66222012E-05
  0.13038109E-04  0.19154771E-04 -0.21659435E-04 -0.34836603E-05  0.50855299E-04
  0.50071706E-05  0.13246803E-05 -0.80692188E-06  0.35212839E-07 -0.11720723E-05
  0.17826776E-06 -0.92550291E-07 -0.78298414E-06  0.46593110E-06  0.52243866E-06
 -0.26389163E-04 -0.55792376E-04  0.49601035E-05  0.24408936E-04 -0.61392960E-04
  0.16521613E-04  0.29534084E-04  0.37229406E-05 -0.87996218E-05  0.14620840E-04
  0.22643173E-04  0.21100045E-04 -0.26357570E-04  0.21176386E-04  0.11656167E-04
  0.37033880E-04  0.40178572E-05  0.11892093E-05 -0.44030749E-06  0.27799315E-06
  0.74879182E-06 -0.68795756E-07  0.69178966E-07  0.18616304E-06  0.35026044E-06
 -0.42594494E-06 -0.28911101E-06 -0.14395194E-06  0.61906092E-06  0.69053697E-06
 -0.12445871E-08 -0.19941708E-06 -0.14780795E-06  0.34205444E-06 -0.55487203E-06
 -0.27329539E-06  0.19167729E-05  0.23044908E-06  0.14531055E-07  0.94051592E-07
 -0.12154875E-05 -0.20044674E-06  0.41202945E-06 -0.86720147E-07  0.17993818E-06
 -0.37411505E-04  0.47301171E-05  0.11067096E-04  0.13692326E-04  0.77583169E-05
  0.41990789E-05  0.29956270E-05  0.10292285E-04 -0.17224080E-05 -0.17574241E-05
 -0.23299271E-05  0.71864491E-07 -0.11260677E-05 -0.22418456E-06  0.63129803E-06
 -0.10740862E-05 -0.88333415E-07  0.27568968E-06 -0.52344974E-04  0.99010834E-05
 -0.22260746E-05  0.73145312E-04 -0.26370361E-04 -0.88716012E-05 -0.25448571E-05
  0.39526194E-04  0.64181443E-05  0.20734480E-04  0.14270969E-04  0.32049336E-05
 -0.92378751E-05 -0.95062936E-06  0.45600993E-05 -0.87757734E-05 -0.39424745E-05
 -0.43390192E-05  0.53320859E-03  0.11847390E-03 -0.21309758E-04  0.18049190E-03
 -0.10818453E-03 -0.14347459E-03  0.16198609E-03  0.20639919E-05 -0.56918651E-05
  0.57589038E-04  0.82696384E-04 -0.11770035E-03  0.53959369E-04 -0.37881812E-04
 -0.57177223E-04 -0.74099480E-04  0.11907837E-03  0.10863261E-03 -0.46287703E-05
 -0.63597943E-04  0.46028977E-04  0.16296866E-04  0.29233927E-04 -0.29902925E-04
  0.15739828E-04 -0.34742656E-04 -0.53399025E-04 -0.47235210E-06 -0.15727185E-06
 -0.10969490E-05 -0.11982737E-05 -0.99603024E-06 -0.23479179E-06 -0.60406415E-07
 -0.14861254E-06  0.43392732E-06 -0.20903246E-06  0.43672701E-06  0.65608234E-06
 -0.55914568E-06 -0.48089266E-06 -0.47732247E-07 -0.20821088E-06 -0.23493490E-06
  0.41140682E-06  0.87757856E-06 -0.13421578E-06 -0.12475076E-05 -0.57202214E-07
 -0.45441419E-06 -0.10164086E-05  0.43116211E-07  0.76367676E-07  0.10691923E-05

 -0.36744440E-06 -0.13055069E-05 -0.16715272E-06 -0.54626460E-06 -0.55830358E-06
  0.59368361E-06 -0.41473146E-06 -0.61448132E-06  0.21307504E-06  0.20960405E-06
 -0.33286867E-04  0.18147814E-04  0.79917379E-05 -0.73800703E-05  0.81899724E-05
 -0.22551622E-04 -0.14609940E-04  0.29673773E-04 -0.60549076E-05 -0.95008333E-04
 -0.12651437E-04  0.38581433E-04 -0.40565597E-04  0.10180268E-04  0.13881560E-04
 -0.38042039E-05 -0.15609056E-04  0.12173203E-04 -0.13878678E-04 -0.31937755E-04
 -0.31186861E-04  0.12988730E-04  0.12767679E-04 -0.25762543E-04  0.21836057E-04
  0.24559331E-04 -0.24580200E-07 -0.16760633E-05 -0.23526603E-06  0.18454072E-06
  0.12866563E-05 -0.27710853E-06  0.14684220E-07 -0.15552546E-06 -0.14379097E-06
 -0.29605083E-04 -0.10902566E-03  0.16813621E-04  0.95752181E-05 -0.12310401E-05
 -0.58220626E-05 -0.14812821E-04  0.28342409E-05  0.23551305E-04 -0.10410982E-04
  0.71604018E-05 -0.82381066E-05  0.16415794E-04  0.84070271E-05  0.13067526E-04
  0.99723840E-05  0.73702671E-05  0.53268521E-05  0.21898372E-06  0.64662980E-06
  0.62689675E-06 -0.19577937E-07 -0.11621903E-05 -0.11735287E-07  0.19531138E-06
 -0.15932111E-06 -0.86465715E-07 -0.18006273E-06  0.62126346E-06  0.73724746E-06
  0.63059567E-06 -0.14032569E-05 -0.30086975E-06 -0.93596648E-07  0.15925802E-06
  0.25209230E-06  0.40764414E-06 -0.12630963E-05  0.88018525E-06 -0.25057573E-06
 -0.54874410E-06 -0.88265345E-07  0.42796081E-07  0.27509716E-06  0.11599861E-08
 -0.86540113E-05  0.35213573E-04  0.56769431E-05 -0.15929159E-04  0.90338600E-05
 -0.23716773E-05 -0.17127631E-05  0.60877325E-05  0.13330322E-04 -0.76245765E-06
  0.66979931E-06 -0.27224202E-06 -0.88620916E-06  0.58438060E-07  0.45181828E-06
 -0.41997134E-06  0.54153727E-06 -0.12375297E-06 -0.23924574E-04 -0.19041907E-04
 -0.41444539E-05  0.16157057E-04 -0.33421118E-04 -0.87695169E-05  0.15023270E-04
 -0.10291559E-04  0.22800133E-05  0.91035660E-05  0.10698169E-05  0.17190912E-05
 -0.86317019E-05  0.94718886E-05  0.19321251E-05  0.27643545E-05 -0.15124440E-05
 -0.55956138E-07  0.11847390E-03  0.58000614E-03  0.45775261E-04  0.23184727E-04
 -0.67515525E-05 -0.37087913E-04  0.10457544E-03  0.14099630E-04  0.33499199E-04
  0.78904097E-04 -0.20299426E-04 -0.69082853E-04  0.50396945E-04  0.79123525E-04
 -0.34987230E-04  0.15040508E-04  0.92451469E-04  0.38961820E-04 -0.23162459E-04
 -0.34333014E-04  0.17497258E-04  0.58590427E-05 -0.38519960E-04 -0.27826669E-04
  0.25031687E-04 -0.24668104E-04 -0.12417109E-04  0.11832011E-06  0.83127618E-06
  0.12800634E-06 -0.29165143E-06 -0.11687738E-05 -0.88154989E-07 -0.17674395E-07
 -0.30838142E-07  0.55502992E-07 -0.44678995E-06 -0.43369392E-06  0.23678917E-06
  0.22404877E-07 -0.91555484E-07 -0.38131419E-06  0.30833674E-06  0.44092323E-08
 -0.44864041E-06  0.13910842E-05  0.88253071E-06 -0.43133383E-06  0.26041919E-06
  0.15269211E-05 -0.23684642E-06 -0.81864518E-06  0.52180510E-07 -0.13545698E-06

  0.58499377E-06  0.11977699E-05  0.30697359E-06 -0.20534413E-07 -0.21858259E-06
 -0.73026013E-06  0.10319038E-07 -0.21643890E-06 -0.12463149E-06  0.57908137E-05
 -0.13950332E-04  0.48672736E-04  0.37465202E-05 -0.20500337E-04  0.38103343E-05
  0.11902007E-05 -0.17171156E-04 -0.66720757E-05  0.37286049E-04 -0.24258800E-04
 -0.12215887E-04 -0.13847980E-04  0.28276358E-04 -0.18903880E-04 -0.18304211E-04
  0.26773927E-04  0.18043833E-04 -0.12134627E-04  0.73144034E-05 -0.64305356E-04
 -0.23652313E-04 -0.18066767E-05  0.49248501E-05  0.10921912E-04  0.27205619E-04
 -0.74456272E-05 -0.62196271E-06 -0.16672523E-05  0.52226476E-06  0.24044341E-06
  0.14359817E-06  0.25467067E-06  0.17809207E-06  0.26188432E-06 -0.26323201E-06
 -0.70606256E-05 -0.16435172E-04  0.18460181E-04 -0.14234805E-05  0.38759591E-04
 -0.25044286E-04 -0.14449315E-04  0.11023868E-04  0.16714899E-04 -0.78322229E-05
  0.75499397E-05  0.11267242E-04 -0.17434755E-04 -0.38203085E-05  0.15584469E-04
 -0.53551641E-05  0.45439361E-05 -0.84076278E-05  0.17260532E-06  0.17994613E-07
 -0.85164899E-06 -0.31770605E-06  0.28935298E-06 -0.54677696E-06  0.12070852E-08
 -0.39791081E-06  0.39254391E-06  0.58626097E-06 -0.74222338E-06  0.11368299E-05
  0.12768518E-06 -0.97632111E-07 -0.61011031E-07 -0.29388115E-06 -0.32028889E-06
  0.48450744E-06  0.23450896E-06 -0.20448978E-06  0.15084479E-06  0.34152937E-06
 -0.26314717E-06  0.30516587E-06 -0.18663736E-06  0.50504103E-06 -0.25338655E-06
 -0.13933074E-05  0.14549016E-04 -0.10220979E-04  0.64367993E-06 -0.39902628E-05
 -0.20167091E-04 -0.10394442E-04 -0.14369207E-04  0.20098222E-04 -0.14316725E-06
 -0.16252446E-05 -0.23700755E-06 -0.28068365E-06 -0.22742593E-06  0.37004014E-06
  0.71939466E-06  0.62481388E-06 -0.45363462E-07 -0.72440570E-05 -0.21723245E-05
 -0.17106972E-04 -0.17110361E-05  0.10724070E-04  0.60287815E-05 -0.90595488E-05
  0.27520898E-04 -0.24525292E-04  0.98212414E-05  0.64345877E-05 -0.59767816E-05
 -0.58815721E-05  0.58834916E-06  0.31712742E-05 -0.26734639E-05  0.30557258E-05
  0.17310469E-05 -0.21309758E-04  0.45775261E-04  0.41444775E-03  0.37166570E-04
 -0.26978983E-04  0.19887027E-04  0.33451826E-04  0.86311374E-04  0.77050925E-04
 -0.13624863E-03 -0.11157324E-03 -0.12427520E-03  0.32406079E-03  0.10744978E-03
 -0.12368933E-03  0.20331055E-03 -0.10601506E-04 -0.32202343E-04  0.63428078E-04
  0.70859370E-04  0.26225632E-04 -0.44739167E-04 -0.46457399E-04  0.26605573E-04
 -0.18686727E-04 -0.62877512E-04 -0.46240151E-04  0.45869017E-08 -0.57573237E-06
  0.58105480E-06  0.11867081E-07  0.34900156E-07 -0.42892159E-06  0.15857903E-06
 -0.93519824E-06  0.26240664E-06  0.23148896E-06  0.36865869E-06  0.67858496E-06
  0.32734958E-06 -0.58932816E-06 -0.58402952E-07  0.34618141E-06  0.24025017E-06
  0.30886015E-06  0.35078959E-06  0.18494730E-07 -0.30255344E-06  0.15201765E-06
  0.74974737E-06 -0.55682102E-06 -0.89374818E-06 -0.11308476E-06  0.39828515E-07

 -0.84741609E-06 -0.12074473E-06  0.22087665E-07  0.15862596E-05 -0.98476453E-07
 -0.70436280E-06 -0.38351675E-06 -0.19939001E-06 -0.21213537E-07  0.14512843E-04
 -0.14571972E-04  0.28491255E-05  0.38961876E-04 -0.42952794E-04  0.22076983E-04
  0.19003117E-04  0.16280374E-04 -0.16676041E-04 -0.17515900E-04  0.22736786E-04
 -0.10219817E-04  0.79063658E-05 -0.19874974E-04 -0.21320519E-04  0.20402286E-04
 -0.40827228E-04 -0.21480975E-04 -0.28183719E-04 -0.17312340E-04 -0.26671714E-04
  0.24646226E-04  0.22145527E-04 -0.23643217E-04 -0.13531128E-04  0.42701165E-04
 -0.18496812E-05  0.15124498E-05 -0.58539942E-06 -0.72328400E-07 -0.85831999E-06
  0.13634895E-07 -0.61434936E-07 -0.92317955E-06  0.11714122E-05  0.13442681E-06
 -0.48454180E-04  0.12521073E-04  0.14437881E-04 -0.16576829E-05 -0.11959858E-04
 -0.36495607E-05 -0.22939292E-05 -0.10682482E-04  0.26890677E-05 -0.57875642E-04
 -0.12383884E-04  0.19744364E-05 -0.54915520E-04  0.39169415E-06  0.11442099E-04
  0.38859871E-04  0.60532372E-05  0.11722169E-05 -0.77492884E-06  0.72565428E-06
 -0.17217822E-07 -0.67814903E-06 -0.11581674E-06  0.28175686E-06  0.95647012E-06
 -0.65985298E-06 -0.14166220E-06  0.11016417E-05  0.14605672E-06 -0.13662986E-06
 -0.19378906E-07  0.19489239E-06 -0.97408594E-07  0.35088094E-06 -0.75901971E-06
 -0.92411775E-07  0.12513477E-05 -0.17732851E-06  0.13573072E-06 -0.65144071E-06
 -0.70157216E-06  0.11778708E-06  0.23046474E-06  0.19240480E-06 -0.12344025E-06
  0.35120214E-05  0.47595021E-05 -0.38624180E-05  0.19195787E-04  0.48148567E-05
 -0.12059790E-04 -0.16786856E-04 -0.78978379E-05  0.87184982E-05 -0.25907117E-05
 -0.43971897E-06  0.35948607E-06 -0.32442255E-06 -0.47578019E-06  0.20374538E-06
 -0.10035051E-05 -0.11146803E-06  0.78680692E-07 -0.81942568E-05  0.14026253E-04
 -0.19458226E-04  0.44702300E-04 -0.90791217E-05 -0.81574676E-05 -0.28971561E-04
  0.13267841E-04  0.16637741E-05  0.12732349E-04  0.13842340E-04  0.28880461E-05
  0.56594205E-05 -0.38061935E-05  0.24039413E-05 -0.34190421E-05 -0.37214378E-05
 -0.40262742E-05  0.18049190E-03  0.23184727E-04  0.37166570E-04  0.73694435E-03
 -0.23598528E-03 -0.24590506E-03  0.11047174E-03 -0.51502820E-04 -0.42699894E-04
 -0.40085839E-05  0.37174446E-04 -0.74755590E-04  0.34465237E-03  0.24858121E-04
 -0.88615071E-04  0.12648803E-03  0.13582447E-04  0.53015360E-04 -0.65384916E-04
 -0.36663643E-04  0.10742455E-05  0.22166611E-04 -0.20264478E-04  0.17594097E-05
 -0.12333825E-04  0.58149512E-04  0.58380834E-05  0.16380643E-05 -0.40376290E-06
 -0.45105157E-06 -0.37358106E-06 -0.47437539E-06 -0.22617128E-06  0.19231699E-06
 -0.21423486E-06  0.56529289E-06 -0.12248615E-06  0.11415135E-05  0.16181798E-06
 -0.85984204E-06  0.10703596E-06  0.45090834E-06 -0.48927393E-06  0.53173273E-06
 -0.38677014E-06  0.96514689E-06 -0.35089450E-06 -0.58265872E-06 -0.56271034E-06
  0.30801970E-06 -0.38271674E-06  0.12164140E-06  0.56656034E-07  0.57200710E-06

 -0.11558513E-06 -0.40008760E-05 -0.69745283E-07 -0.91656522E-06  0.45800899E-06
  0.16781360E-05 -0.95993555E-06  0.22509663E-06 -0.13411832E-06 -0.26880295E-04
 -0.22962699E-04  0.14928580E-04 -0.21721851E-04  0.11045388E-03 -0.53949128E-04
  0.87777115E-06  0.26845921E-04 -0.29833225E-04  0.19135771E-04 -0.24143228E-04
 -0.74304936E-05 -0.11542943E-04 -0.33988750E-04  0.60802701E-05  0.17795661E-04
  0.29580262E-04 -0.18525416E-05  0.23504112E-05 -0.35920104E-05  0.52147125E-04
  0.33091694E-04 -0.38411918E-04 -0.19843608E-04  0.92186508E-05 -0.77874589E-05
  0.32813281E-04 -0.87048008E-06  0.25429650E-05  0.88702328E-07  0.18168659E-05
  0.20297502E-07 -0.18206108E-06  0.52604842E-06 -0.46366735E-06 -0.65402395E-06
  0.14014560E-04  0.50155475E-04  0.13207744E-05 -0.53943063E-06  0.40905430E-04
  0.22295662E-04  0.81017683E-05 -0.98337142E-05  0.27869650E-04  0.67951879E-05
  0.22260937E-04  0.14207213E-04 -0.18440134E-04  0.12730909E-03 -0.18939469E-04
  0.62889671E-04 -0.48040299E-05 -0.38820802E-05  0.91583815E-06  0.11147757E-05
  0.38832308E-06  0.24037126E-06  0.24174066E-06  0.36980716E-06 -0.42771817E-07
  0.41728658E-06 -0.33730117E-06  0.23610334E-06  0.54944641E-06 -0.36150142E-06
  0.84811710E-06  0.64929733E-06  0.55013598E-06 -0.95765062E-06  0.42150040E-06
  0.13718210E-06 -0.15828565E-06  0.11416408E-06  0.39731717E-06  0.10637436E-06
  0.43556927E-07  0.64814986E-06 -0.97095561E-06 -0.10965869E-06 -0.35273190E-07
  0.24571476E-04  0.46130726E-04 -0.28856762E-04 -0.18486762E-06  0.47604405E-04
 -0.94300697E-05 -0.26815150E-05  0.11790726E-04  0.23588402E-04  0.94785287E-06
  0.40017428E-05  0.44794548E-06  0.12535377E-06  0.13124929E-05 -0.29220180E-06
 -0.25405274E-06 -0.61982082E-08 -0.17377527E-06 -0.15777653E-04 -0.92046462E-04
  0.24615714E-04 -0.49477241E-04  0.13078473E-03 -0.13897852E-04 -0.48635419E-04
 -0.30585618E-04 -0.15190858E-04 -0.95395659E-05 -0.14850473E-04 -0.12295665E-05
  0.11339025E-05  0.98371940E-05 -0.23702809E-05  0.12734076E-04 -0.92421753E-06
  0.22088660E-05 -0.10818453E-03 -0.67515525E-05 -0.26978983E-04 -0.23598528E-03
  0.10315132E-02 -0.52342019E-04  0.16305773E-03 -0.53722931E-04  0.32691849E-04
  0.66340833E-04  0.74129584E-05 -0.81369196E-06 -0.14719431E-03  0.35208536E-04
  0.18266786E-04 -0.31688122E-04 -0.15083907E-04 -0.18491951E-04  0.11565542E-03
 -0.16606135E-04  0.30751937E-04 -0.92027718E-04  0.11256707E-03 -0.14687298E-05
 -0.77864320E-04 -0.43418950E-04 -0.58205703E-04  0.37217758E-06 -0.12068366E-05
  0.70450342E-06  0.68322489E-06 -0.52667031E-06  0.11093911E-05  0.13162596E-06
  0.30849199E-06  0.23627617E-06 -0.43222607E-08  0.20984954E-05  0.26230435E-06
  0.75801427E-06 -0.21678627E-06  0.64214943E-07  0.25144247E-06 -0.28344361E-06
 -0.73143731E-06 -0.68687663E-06 -0.15801142E-05  0.11819790E-05  0.12241181E-05
 -0.45986705E-06  0.10626219E-05  0.41362334E-07  0.11870926E-06 -0.10128853E-05

 -0.59546208E-06  0.26898057E-06  0.23965912E-06  0.18524309E-06 -0.67731479E-06
  0.68824155E-06 -0.31699307E-06 -0.39400850E-06 -0.43124217E-06 -0.14642795E-04
  0.11807290E-05  0.15357773E-04  0.99955220E-05 -0.70425713E-04 -0.13398506E-04
  0.51466957E-05 -0.18056176E-04  0.11780391E-04  0.40359340E-04 -0.53193906E-05
  0.36642485E-04 -0.32700737E-04  0.21581975E-04  0.34992704E-04 -0.28859887E-04
 -0.30626959E-05  0.14655970E-04  0.30137159E-04  0.20905427E-04 -0.40897576E-04
 -0.16867097E-04 -0.22571217E-04  0.68361301E-04  0.61150683E-05  0.70133438E-04
  0.22505449E-05 -0.47558603E-06  0.21455419E-06 -0.34820777E-07 -0.30030160E-06
  0.56985976E-07  0.57027482E-06  0.13130781E-06  0.33967891E-06 -0.12229135E-06
 -0.20475985E-05  0.77565789E-05 -0.56836458E-05  0.24162779E-05  0.52978308E-04
 -0.21016260E-04 -0.72218981E-05  0.10204199E-04 -0.22961854E-05  0.81971724E-05
 -0.13196398E-04 -0.28671145E-04  0.44699678E-04 -0.47846032E-05  0.14717309E-06
 -0.36979660E-05 -0.33546627E-05 -0.80105421E-06 -0.71156878E-06 -0.66535603E-06
 -0.62865756E-07  0.67175584E-06 -0.50866078E-06  0.39375855E-07 -0.36829513E-06
  0.33071798E-06  0.27816811E-06 -0.73341818E-06  0.43013663E-08  0.65829009E-06
 -0.37937180E-06 -0.14897085E-07  0.27439141E-06  0.10472421E-06 -0.20455266E-06
  0.90485775E-07  0.22435433E-06 -0.10814973E-05 -0.65393905E-06 -0.48477501E-06
  0.97833732E-06 -0.11267040E-07 -0.27821606E-06 -0.42208264E-06  0.11415397E-06
  0.12681387E-04  0.14711734E-04  0.30399603E-04 -0.16181200E-04 -0.16090373E-04
  0.23552665E-04  0.12144747E-04  0.65145630E-05 -0.13338398E-04 -0.25491003E-06
 -0.41681587E-06 -0.28444227E-06  0.94448468E-07 -0.21724497E-06  0.10367152E-06
  0.37824412E-06 -0.47765575E-06  0.24427144E-07  0.10559671E-04 -0.74187316E-06
  0.75596691E-05 -0.15748892E-04  0.12416362E-04 -0.16454945E-05  0.18925443E-04
 -0.14390413E-04  0.97966416E-05 -0.14055801E-04 -0.11538863E-04 -0.27138347E-05
  0.72537510E-05 -0.41995395E-06 -0.43808884E-05  0.41707749E-05  0.69277705E-05
  0.59002138E-05 -0.14347459E-03 -0.37087913E-04  0.19887027E-04 -0.24590506E-03
 -0.52342019E-04  0.68788844E-03 -0.11554621E-03 -0.86618723E-04  0.19180915E-04
  0.44034813E-04  0.94653408E-05  0.49772033E-04 -0.23659320E-03 -0.67619139E-04
  0.11715223E-03 -0.13073614E-03 -0.95470692E-04 -0.80449834E-04  0.73355305E-04
  0.75174002E-04 -0.33796836E-04 -0.92990909E-04 -0.22529981E-04  0.14068982E-04
 -0.54867201E-04 -0.10256477E-03 -0.32765400E-04 -0.14227782E-06  0.10610295E-05
  0.72254358E-06  0.78126738E-07  0.11674224E-05 -0.57165828E-06 -0.15550128E-06
 -0.23929856E-06 -0.12506810E-07  0.10368503E-05 -0.63504453E-06  0.22447288E-06
  0.10319151E-06 -0.10898147E-05 -0.28114743E-06  0.10736801E-05 -0.53112118E-06
  0.10200129E-05  0.31344984E-06  0.80757432E-06  0.79715577E-06 -0.10370034E-06
  0.32036545E-06 -0.73811249E-07 -0.26796586E-06 -0.57139790E-06 -0.31886410E-06

 -0.12598949E-05 -0.27401619E-05 -0.14749810E-06 -0.64547844E-06 -0.30196612E-07
 -0.15679358E-06 -0.74358623E-06 -0.26804680E-06 -0.18212559E-06  0.23599462E-04
  0.83749595E-05 -0.48717429E-06  0.13795998E-04  0.24342973E-04 -0.80916261E-05
 -0.22147239E-04  0.13956904E-05 -0.20043690E-05  0.13019416E-04 -0.20219086E-04
 -0.11411441E-04 -0.26072703E-05 -0.81613996E-04  0.67129283E-05  0.11255999E-04
  0.15544261E-04  0.29536580E-05 -0.20264840E-05 -0.19028858E-04 -0.23629124E-04
 -0.67587842E-04  0.59839928E-05 -0.59513651E-05 -0.43388267E-04 -0.23640744E-04
 -0.37385781E-05  0.54275301E-06  0.12012077E-06  0.99562414E-06  0.22571413E-06
  0.26563478E-06 -0.66625122E-06 -0.38102237E-06  0.39653668E-06  0.10392586E-06
 -0.39361517E-05 -0.50682173E-04  0.17641502E-04  0.32275738E-04 -0.25303351E-04
  0.10159273E-04  0.20299176E-04 -0.17146179E-05 -0.27997664E-04 -0.13229785E-04
  0.21288427E-04  0.24190656E-04  0.49774568E-05  0.69034042E-05  0.11171802E-04
  0.68146588E-04  0.62607632E-06 -0.62573324E-05  0.92549991E-07 -0.14012093E-05
 -0.16519274E-06 -0.10819190E-05 -0.47254345E-06 -0.15379650E-06 -0.12766720E-06
 -0.45548945E-06 -0.14043975E-06  0.13011859E-05 -0.10881562E-05  0.74427101E-06
  0.66873234E-06 -0.93503791E-07 -0.13765930E-07  0.72279710E-06 -0.10716895E-06
 -0.50249256E-06  0.72217896E-07  0.85685070E-06  0.40312625E-06 -0.44659013E-06
 -0.13460221E-06  0.16130184E-06 -0.25052280E-06 -0.59454250E-07  0.14331454E-06
  0.85744992E-05  0.27408598E-04 -0.42522939E-05  0.81472591E-05  0.48525854E-04
  0.61099144E-07  0.22663858E-04 -0.13891050E-05  0.76906798E-05 -0.93745699E-06
  0.41941505E-06  0.79977343E-06 -0.13169494E-05 -0.54039880E-06  0.30877720E-06
 -0.82428893E-06  0.73793176E-07  0.19504691E-07 -0.15186972E-04  0.11800771E-04
 -0.13302233E-04  0.18901255E-04 -0.99453989E-05 -0.10129458E-04  0.68064583E-05
  0.29466430E-05  0.25780210E-04  0.16207424E-04  0.21026011E-05  0.18762310E-05
 -0.10444419E-04  0.98712905E-05  0.22500477E-05  0.20001514E-05 -0.31258090E-05
 -0.85147920E-06  0.16198609E-03  0.10457544E-03  0.33451826E-04  0.11047174E-03
  0.16305773E-03 -0.11554621E-03  0.74120617E-03  0.24153297E-04 -0.61498255E-04
  0.53853168E-04  0.10397332E-03 -0.10620514E-03  0.42230416E-04  0.16840674E-04
 -0.72085797E-04 -0.22584829E-04  0.12499568E-03  0.43851850E-04  0.17668748E-04
 -0.48826566E-04  0.24289331E-04  0.42708022E-04  0.50461847E-04 -0.34026776E-04
 -0.92305149E-05 -0.37787218E-05 -0.38475773E-04  0.13954110E-06 -0.72907296E-06
  0.13494062E-06  0.18734955E-06 -0.10488785E-05 -0.11492481E-06  0.30111267E-06
  0.17673998E-06  0.26845462E-06  0.96476383E-06  0.12992814E-05  0.30451987E-06
  0.92635345E-07 -0.64473027E-06  0.76727998E-07 -0.15598345E-07 -0.98614803E-07
 -0.54105574E-07  0.66525331E-06 -0.64150907E-06 -0.19234691E-06  0.40242192E-06
 -0.67795217E-06 -0.64235107E-06  0.75472548E-06 -0.44818341E-06  0.53651137E-06

  0.20225476E-07 -0.31026804E-06  0.74512726E-06  0.42363193E-06 -0.21288272E-06
 -0.17166942E-06  0.41419410E-06 -0.29235095E-06  0.34173434E-06  0.74958989E-05
  0.17431921E-04 -0.23824552E-04 -0.95703314E-06  0.36767869E-04 -0.18724963E-04
 -0.98263526E-05 -0.53310672E-04  0.11390340E-04 -0.33186974E-04 -0.52547014E-05
 -0.23353284E-04  0.43439408E-04  0.18286565E-04 -0.11454268E-04  0.11098912E-04
 -0.15753442E-04 -0.31854888E-05  0.32664138E-04  0.21719511E-04 -0.10258609E-05
 -0.62657668E-04  0.27904217E-04 -0.13893277E-04 -0.17134647E-04 -0.43478976E-04
 -0.69962507E-06  0.43880223E-06 -0.63392114E-06 -0.59167570E-06 -0.17299735E-05
  0.37443497E-06 -0.95600181E-06 -0.20390278E-06  0.11608831E-06 -0.22098168E-06
  0.32759432E-04 -0.32453632E-04 -0.18725899E-04 -0.81032359E-05  0.18997004E-05
  0.13855546E-04  0.14585141E-04  0.49183320E-05 -0.23091530E-04  0.12974351E-04
  0.27450871E-04  0.34201648E-04  0.10907994E-04 -0.18965507E-04 -0.17704783E-05
 -0.13629794E-04 -0.52761984E-04 -0.10790333E-04 -0.13001863E-05  0.79433512E-07
  0.79644567E-07  0.80836856E-07  0.52150423E-06 -0.69194475E-06 -0.31522459E-06
 -0.19370162E-06 -0.15635538E-06 -0.14825710E-06  0.96882126E-06  0.91816172E-06
  0.21402355E-06 -0.46938823E-06 -0.46233132E-06 -0.15416393E-06  0.85741627E-08
  0.11827547E-06 -0.87392717E-06  0.47737462E-06  0.11948675E-05  0.66851050E-06
 -0.65090451E-06 -0.14521904E-06 -0.93509872E-06 -0.10683252E-06  0.35532510E-06
 -0.92532052E-05 -0.13629974E-04  0.48611554E-04 -0.24065655E-04  0.16347752E-05
  0.18114869E-04  0.83731362E-06 -0.17335077E-04  0.12734249E-04  0.81060459E-06
  0.21817152E-06 -0.18016668E-06 -0.79444871E-06 -0.77237593E-06  0.52745786E-06
 -0.75014622E-07  0.11219217E-07 -0.18775612E-06 -0.12855146E-04  0.66897922E-05
  0.67714817E-05  0.17819305E-04 -0.29700613E-04  0.49493355E-05  0.40007099E-04
  0.99323555E-05  0.12609699E-04  0.12262954E-04  0.92188817E-05 -0.44781058E-05
 -0.46421784E-05 -0.11084251E-05  0.45396051E-05 -0.34672851E-05  0.42304836E-05
  0.25397231E-05  0.20639919E-05  0.14099630E-04  0.86311374E-04 -0.51502820E-04
 -0.53722931E-04 -0.86618723E-04  0.24153297E-04  0.49616439E-03  0.13355178E-03
 -0.16307796E-03 -0.11353146E-03 -0.10564021E-04  0.19550191E-03  0.11210512E-03
 -0.11101268E-03  0.17733764E-03  0.37061199E-04 -0.12638029E-04  0.24868524E-04
  0.25480170E-04  0.34786167E-04  0.30293578E-05 -0.50042152E-04 -0.40641776E-06
 -0.25663254E-04  0.69236507E-04 -0.10393025E-04 -0.23179858E-06 -0.14660064E-05
  0.37686470E-06 -0.20243266E-06 -0.74836833E-06 -0.18011309E-06 -0.14481303E-06
 -0.48066009E-06 -0.67022252E-06  0.37288710E-06 -0.57910359E-06  0.18447483E-06
 -0.36420994E-06  0.14173472E-06 -0.47666122E-06 -0.23813881E-06  0.61352637E-06
 -0.53252109E-06  0.23369092E-06  0.71572786E-07  0.53593159E-06 -0.61774531E-06
 -0.18063825E-07 -0.63684852E-06 -0.77418929E-06  0.15602881E-07  0.26628204E-06

  0.32724106E-06 -0.70241631E-06  0.26607278E-06 -0.44202457E-06  0.48208332E-06
  0.32309603E-06 -0.15145703E-06  0.35165233E-06 -0.51917480E-06  0.92438404E-05
  0.89298054E-05  0.22308397E-04  0.22907862E-05 -0.75757934E-05 -0.20029739E-04
  0.15887252E-04  0.60241663E-05 -0.13190299E-04 -0.85108447E-05 -0.20679258E-04
  0.12569314E-04  0.15908952E-04  0.51087337E-04 -0.15878383E-04 -0.17224905E-04
 -0.14826071E-05  0.73402337E-05  0.34161287E-05 -0.23568919E-05  0.63145518E-05
  0.12850416E-05  0.23370927E-04 -0.55563382E-05  0.46257817E-04  0.10812045E-04
  0.18178322E-04  0.22885713E-06 -0.63476564E-06 -0.17917590E-06  0.10807215E-06
  0.52594015E-07  0.27980388E-06  0.32500909E-06  0.24418897E-06 -0.75998553E-06
  0.14949140E-05 -0.55837425E-04 -0.21490217E-05 -0.18106292E-04  0.15802671E-04
  0.12764946E-04 -0.11237392E-04  0.26002656E-04 -0.22322796E-04 -0.34985259E-05
 -0.56985470E-05 -0.20485621E-05  0.30478696E-04  0.20532688E-04 -0.19281166E-04
  0.24799659E-05 -0.11654423E-04 -0.23410170E-05 -0.75496891E-06 -0.10606518E-05
 -0.55476408E-06 -0.18622629E-06  0.12596764E-06 -0.21741229E-07 -0.46568824E-06
  0.93594884E-07  0.21554130E-06  0.59939905E-06 -0.14971719E-05 -0.11346856E-06
 -0.35320128E-06 -0.39676184E-06 -0.22753510E-06 -0.40204606E-06  0.21349735E-06
  0.45548807E-06  0.73851934E-06 -0.56331202E-06  0.55940552E-06  0.70184710E-06
 -0.69155985E-06 -0.37803912E-06 -0.34041026E-07 -0.21835486E-06 -0.44263726E-06
 -0.24107618E-04  0.87219539E-05  0.12639213E-04 -0.19047040E-04  0.87952711E-05
  0.13922908E-04 -0.23162743E-05 -0.19143807E-05  0.53606468E-05 -0.92715882E-07
  0.19030595E-06 -0.39463707E-06  0.17232343E-06 -0.36114751E-06  0.11216049E-06
  0.17228453E-06  0.19167648E-06 -0.47237429E-06 -0.97194797E-05 -0.31711420E-04
  0.72609806E-05 -0.50640810E-05  0.22503521E-04  0.56888224E-05 -0.12329411E-04
 -0.14153259E-04 -0.15871740E-04  0.40852567E-05  0.24741786E-06 -0.60224629E-05
 -0.44936362E-05  0.59836729E-05  0.20928464E-05  0.25386862E-05  0.23284617E-05
  0.94255955E-06 -0.56918651E-05  0.33499199E-04  0.77050925E-04 -0.42699894E-04
  0.32691849E-04  0.19180915E-04 -0.61498255E-04  0.13355178E-03  0.54212160E-03
 -0.12135935E-03 -0.11172389E-03 -0.80011019E-05  0.31198315E-03  0.82747585E-04
 -0.10278900E-03  0.13131992E-03 -0.93095215E-04 -0.42246606E-04  0.72750628E-04
  0.14930638E-04  0.50422962E-04 -0.69819299E-04 -0.32698108E-04  0.80962290E-06
 -0.80883069E-04 -0.40880314E-04 -0.29276576E-04 -0.28516468E-06  0.17456966E-06
 -0.75122571E-06  0.44063836E-06 -0.31972363E-06 -0.34342347E-06 -0.20218824E-06
 -0.53181648E-06 -0.27706436E-06 -0.21983552E-06 -0.18794363E-06  0.59064290E-06
  0.34753792E-06  0.46238785E-06 -0.45347962E-06 -0.69030926E-06  0.23990852E-06
 -0.81244306E-06  0.88002208E-06  0.26391370E-06  0.78150042E-06  0.19549572E-07
  0.83638568E-06  0.12482992E-06  0.13582636E-06  0.28264955E-06 -0.49411583E-06

 -0.10596404E-05 -0.10268216E-05 -0.59240429E-06 -0.54341492E-06  0.20878825E-06
  0.41720636E-06 -0.17755537E-06 -0.38591989E-06 -0.81508427E-06 -0.24616394E-04
 -0.60549410E-04 -0.20140005E-05  0.13899752E-04 -0.43802365E-04 -0.14452956E-04
 -0.17265977E-04  0.20216074E-04 -0.21511491E-04 -0.39200168E-04  0.77404110E-04
 -0.22538658E-04  0.48310976E-05 -0.49825486E-04  0.44604177E-04  0.26457656E-04
  0.10227743E-04  0.23033122E-05  0.65369443E-04 -0.42739839E-04  0.67941292E-05
 -0.89140485E-05  0.37857167E-04 -0.41026090E-04  0.37024871E-05  0.17465099E-04
  0.22974039E-04 -0.26647188E-06  0.20224734E-05  0.35224557E-06  0.25588833E-06
 -0.38012353E-06  0.52702161E-07 -0.51270894E-06  0.29613418E-06 -0.16945089E-06
 -0.21024658E-04 -0.22617547E-04  0.10843048E-04  0.19411451E-04 -0.29127159E-04
  0.34540087E-04  0.20513052E-05 -0.14146215E-04 -0.18440038E-04 -0.16184808E-04
 -0.70502457E-05  0.33243791E-04  0.33258743E-04 -0.37952531E-04  0.21818091E-04
 -0.54456565E-05 -0.17871142E-05  0.11696137E-04 -0.14351555E-06 -0.11362433E-05
  0.50449289E-06 -0.54124010E-06 -0.18488097E-06 -0.46834229E-07  0.11822984E-05
 -0.16981698E-06 -0.41835147E-07  0.47463443E-06 -0.93737457E-06  0.48796584E-06
  0.11648591E-05 -0.75951614E-06  0.18202434E-06 -0.79603227E-06 -0.40985400E-06
 -0.96722674E-07 -0.94392103E-06 -0.53999573E-06  0.38901945E-06 -0.48351452E-06
 -0.10671465E-05  0.36471971E-06 -0.56411183E-06  0.47095929E-06  0.17067050E-06
  0.34197840E-05  0.44539757E-04 -0.19770429E-04 -0.25026531E-04  0.14672113E-04
 -0.12715869E-04 -0.21146933E-04  0.46481010E-07  0.21852579E-04 -0.71148746E-07
  0.29403123E-05 -0.36705627E-06 -0.57457114E-06  0.80957934E-06 -0.54875211E-06
 -0.22179455E-05  0.43169990E-07 -0.18853607E-06 -0.54732186E-04  0.24540448E-04
 -0.29430074E-05 -0.44726519E-04  0.29281279E-06 -0.20366032E-04  0.26514815E-04
 -0.28626222E-04 -0.10912450E-04 -0.15277809E-05 -0.42130381E-05 -0.51929676E-07
  0.20549171E-05  0.61067552E-06 -0.12211709E-06  0.94381112E-06  0.50389920E-06
 -0.13980360E-05  0.57589038E-04  0.78904097E-04 -0.13624863E-03 -0.40085839E-05
  0.66340833E-04  0.44034813E-04  0.53853168E-04 -0.16307796E-03 -0.12135935E-03
  0.10238236E-02  0.33274952E-03 -0.10060088E-03 -0.32578549E-03 -0.12080101E-03
  0.49505121E-04 -0.28966480E-03  0.13213186E-04  0.29466559E-04 -0.90850180E-04
 -0.44043102E-04  0.24787640E-04 -0.22900496E-04  0.61406404E-04 -0.14924691E-04
  0.12264723E-04 -0.32972480E-04 -0.68070653E-05 -0.12855658E-06  0.12289269E-05
  0.66522739E-06  0.31382127E-06 -0.80096871E-07  0.15884515E-06 -0.17851693E-06
  0.52186423E-06  0.55543071E-06 -0.11043191E-05 -0.73168202E-06  0.29292231E-06
 -0.48562750E-06  0.43050112E-07 -0.57380046E-06 -0.14035609E-05  0.36609021E-06
 -0.24042684E-06 -0.65701024E-06  0.21007138E-05 -0.69717505E-06 -0.45093204E-06
 -0.36629835E-06 -0.28428980E-06  0.13806705E-05  0.72131644E-06  0.40588867E-07

 -0.92367033E-06 -0.86169404E-06 -0.85133813E-06 -0.85059363E-06  0.37351710E-06
  0.23274840E-06 -0.33309073E-06  0.21816455E-06 -0.46655520E-06 -0.54633524E-05
 -0.66102464E-05 -0.74244342E-05  0.26452696E-04 -0.34705815E-04 -0.17402419E-04
 -0.95504793E-05  0.16002536E-04  0.44015177E-04  0.57668477E-05 -0.27447541E-04
  0.58228141E-05  0.43735110E-04 -0.13904648E-03  0.94576776E-05  0.23570847E-04
 -0.76829053E-05  0.35936871E-04  0.14372638E-05 -0.46639170E-04  0.17288297E-04
 -0.16709351E-04 -0.35257110E-05 -0.14604436E-04 -0.49324374E-04  0.11813554E-04
 -0.20811468E-04 -0.42300817E-07  0.39771784E-06  0.31172615E-06 -0.25852535E-06
  0.74052763E-06  0.17741636E-06 -0.52686235E-07  0.26741309E-06  0.56529988E-06
 -0.24228252E-04  0.14929463E-04 -0.77987139E-05  0.20149105E-04 -0.28278769E-04
  0.14005370E-04  0.25966454E-04  0.39510091E-05  0.25888470E-05 -0.84810674E-05
 -0.62230875E-05 -0.13273249E-04  0.22774683E-04 -0.44731081E-04  0.57819802E-05
  0.15075160E-05 -0.13335878E-04  0.11087326E-04  0.46561778E-06  0.69474864E-07
 -0.73360742E-07 -0.17516764E-06 -0.97627700E-06  0.33024508E-06  0.58817584E-06
 -0.20573786E-06  0.10717516E-07  0.42941097E-06  0.22298036E-05  0.11702317E-06
  0.16671982E-06 -0.10993356E-07  0.32445449E-07 -0.74713070E-07 -0.29717820E-06
 -0.35838189E-06  0.23121800E-06  0.18748453E-05  0.49638871E-08 -0.36671955E-06
  0.10291523E-06 -0.31090417E-06  0.75048712E-07 -0.69624491E-06 -0.36447630E-06
  0.16858889E-04  0.67303289E-04 -0.17367851E-04  0.12931990E-04  0.55828833E-04
  0.14100046E-05  0.14866076E-04  0.24561090E-05 -0.18469534E-04 -0.44282468E-06
  0.13495652E-05  0.54452520E-06 -0.74365357E-06 -0.34185385E-06 -0.17222187E-06
 -0.89593057E-06 -0.20067627E-06 -0.62034631E-06 -0.38565828E-04  0.34779774E-04
 -0.18038377E-04 -0.19307634E-05  0.63939348E-05 -0.89292454E-05  0.86270931E-05
  0.32166688E-05 -0.27666812E-04  0.13030443E-05 -0.11411745E-05 -0.15776271E-05
  0.14358345E-06 -0.30510932E-05  0.12402060E-05  0.34991415E-06 -0.18526381E-05
 -0.12582408E-05  0.82696384E-04 -0.20299426E-04 -0.11157324E-03  0.37174446E-04
  0.74129584E-05  0.94653408E-05  0.10397332E-03 -0.11353146E-03 -0.11172389E-03
  0.33274952E-03  0.72263472E-03 -0.68265282E-05 -0.18107976E-03 -0.10421010E-03
  0.25860408E-05 -0.14920362E-03  0.51590403E-05  0.31139353E-05 -0.83038204E-04
 -0.61999984E-04 -0.55303749E-04  0.20525117E-04  0.20551501E-03 -0.17664734E-04
  0.53913626E-04 -0.74295647E-05 -0.16210509E-04  0.61591569E-06  0.31433752E-06
 -0.78515913E-06 -0.13193934E-06 -0.11865609E-06  0.45930661E-07  0.84462958E-07
  0.32567522E-06  0.21400988E-06 -0.53200011E-07 -0.11665811E-05 -0.21046955E-06
 -0.30274976E-06 -0.58875353E-06 -0.20212544E-06  0.36060407E-06  0.21694084E-06
  0.34792247E-06 -0.51647959E-06  0.20224580E-05 -0.49217034E-06  0.47586359E-07
 -0.70256284E-06 -0.46583589E-06 -0.65535763E-06  0.99556942E-07  0.26400435E-06

 -0.16678318E-05 -0.61746790E-06 -0.21982089E-06 -0.51951091E-06 -0.13288131E-06
  0.76266643E-06 -0.98454176E-06 -0.56691352E-06 -0.30646284E-06 -0.24544045E-04
  0.64150765E-05 -0.97354730E-04  0.31578413E-04 -0.15066274E-04  0.46303895E-04
  0.17652001E-04  0.11594652E-04  0.21315940E-04  0.11478230E-04  0.30263304E-04
  0.39642582E-04 -0.33972091E-05  0.47634102E-05 -0.25290861E-04 -0.29031247E-04
 -0.23855104E-04  0.21487352E-04 -0.10956144E-04 -0.54756965E-05  0.93861084E-04
 -0.65399936E-05 -0.55903550E-05  0.46436706E-04  0.18862628E-04  0.11744772E-06
  0.21330458E-04  0.25643120E-06  0.41477621E-06  0.70329159E-06 -0.19124659E-07
 -0.19989507E-06 -0.50873897E-06 -0.16925382E-06 -0.37443277E-08 -0.26838622E-06
  0.14249900E-04  0.99805795E-05  0.69389716E-05 -0.99233859E-05  0.14253822E-04
 -0.68971829E-06  0.21100294E-04 -0.56408135E-05 -0.22113327E-04 -0.29058069E-04
  0.61495800E-05 -0.36546916E-04  0.80088494E-05  0.27135648E-05  0.68476364E-05
  0.66403545E-06 -0.28027104E-04  0.26195257E-05 -0.78349079E-06 -0.48213419E-06
  0.53336707E-06  0.10120463E-06 -0.31543316E-06 -0.49014944E-07 -0.21829291E-06
 -0.36259338E-07 -0.74826090E-07  0.37471868E-06  0.73802266E-06 -0.83576295E-06
  0.80464953E-07  0.13515402E-06 -0.26691760E-06  0.43242236E-06 -0.70113662E-07
  0.60541178E-07  0.20012684E-06  0.16752227E-06  0.26188305E-06 -0.55357238E-06
  0.99389987E-06 -0.48014108E-06  0.87756571E-07  0.46039576E-07 -0.24668560E-07
 -0.14866224E-04  0.93111158E-05  0.81512031E-05 -0.59341145E-05 -0.41251583E-05
 -0.15295628E-04  0.16585772E-04  0.10302769E-04 -0.57918216E-05  0.14546599E-06
  0.91464483E-06 -0.25947923E-06 -0.85734775E-07  0.40928421E-06 -0.95974873E-06
 -0.65724099E-07 -0.77885008E-07 -0.61677786E-06 -0.20696781E-06 -0.90096543E-05
 -0.10503751E-04 -0.89274991E-05  0.34180923E-04 -0.30626669E-04 -0.44038408E-05
 -0.77281063E-05 -0.20062898E-04 -0.89379580E-05 -0.77431629E-05  0.44060484E-05
  0.75196557E-05 -0.62562218E-06 -0.47695177E-05  0.23748355E-05  0.25258467E-05
  0.48326580E-05 -0.11770035E-03 -0.69082853E-04 -0.12427520E-03 -0.74755590E-04
 -0.81369196E-06  0.49772033E-04 -0.10620514E-03 -0.10564021E-04 -0.80011019E-05
 -0.10060088E-03 -0.68265282E-05  0.50378271E-03 -0.19376499E-03 -0.69189576E-04
  0.10188212E-03 -0.55073201E-04 -0.80178038E-04 -0.89024686E-04 -0.66194434E-04
 -0.14514363E-04  0.14071908E-04  0.37431582E-04  0.66440944E-05 -0.12053993E-05
 -0.14690859E-04  0.29332267E-04  0.11419337E-04 -0.86608795E-07  0.63729690E-06
  0.97508579E-06 -0.14424867E-06  0.14093831E-06  0.10973641E-05 -0.32535946E-07
  0.15953037E-06 -0.23012274E-06 -0.11522185E-05 -0.35179595E-06 -0.20073926E-05
  0.17818599E-06 -0.50488804E-06  0.13679995E-08 -0.33991890E-06 -0.59944808E-07
  0.43934991E-06 -0.84218112E-07 -0.76042062E-06  0.85130726E-06 -0.39587056E-06
 -0.75206758E-06  0.57552862E-06  0.47181811E-06  0.62330868E-07 -0.16351114E-06

  0.13060224E-05  0.28736901E-05  0.14533816E-06  0.98021878E-06 -0.87241657E-06
 -0.12257702E-05  0.76054388E-06  0.31715076E-06 -0.90872337E-06  0.50184073E-04
  0.49886515E-04  0.89476861E-04 -0.75080596E-04 -0.16060829E-06 -0.81144130E-05
 -0.68082474E-04 -0.82335779E-04  0.39498515E-04 -0.52656542E-04  0.37188068E-05
 -0.32809017E-04 -0.10162255E-03  0.10312105E-03 -0.20007862E-05 -0.61723800E-04
  0.52646293E-04  0.16231191E-04  0.61813748E-04  0.44660124E-04 -0.69201265E-04
  0.12933187E-03 -0.82732186E-05  0.28407643E-04 -0.21017771E-04 -0.46176964E-04
  0.35180576E-04  0.56786527E-06 -0.95349156E-06  0.69788301E-06 -0.16373142E-05
  0.44604305E-06 -0.43546310E-06 -0.11919992E-05  0.12938325E-05 -0.19664290E-06
 -0.52419363E-04 -0.67953021E-04 -0.79577848E-05 -0.45361031E-04  0.11816410E-03
 -0.14606394E-04 -0.56769996E-04  0.10043810E-04 -0.69950130E-04 -0.10965031E-03
 -0.22981966E-04  0.11808094E-04 -0.69129051E-04 -0.88331537E-04  0.21726645E-04
 -0.97151365E-04 -0.70432155E-04 -0.24325834E-04 -0.17076693E-05 -0.99912517E-06
 -0.12488682E-05 -0.21979865E-05  0.10372766E-05  0.23103102E-06  0.13692076E-05
 -0.11467084E-05  0.12276891E-05  0.20890709E-05 -0.12393696E-05 -0.19806502E-06
  0.79384463E-06  0.22981014E-06 -0.13532070E-05 -0.12459862E-05 -0.11477786E-05
  0.37683340E-07 -0.74647782E-06 -0.37433718E-06  0.60681938E-06  0.80301213E-06
 -0.13313734E-05  0.27786372E-07  0.32885025E-06  0.28978848E-06  0.81555223E-07
  0.66221788E-05  0.14142226E-04  0.44308705E-04 -0.52025743E-04  0.66568464E-05
  0.69480869E-05 -0.30867655E-04 -0.29776860E-05  0.10458751E-04  0.98854997E-06
 -0.75577116E-06  0.23824972E-05  0.26677833E-05 -0.13156861E-05 -0.62094445E-06
  0.38796735E-05 -0.33616400E-06 -0.93201082E-07  0.21569582E-04  0.32129230E-04
 -0.13896153E-04 -0.10168956E-03 -0.12033702E-04  0.37958578E-04 -0.54313870E-04
  0.52014443E-04 -0.22631336E-04  0.16137911E-04  0.16258636E-04 -0.11819729E-04
 -0.67938638E-05  0.89723928E-06  0.84641514E-05 -0.90090767E-06 -0.42871810E-05
 -0.52195318E-05  0.53959369E-04  0.50396945E-04  0.32406079E-03  0.34465237E-03
 -0.14719431E-03 -0.23659320E-03  0.42230416E-04  0.19550191E-03  0.31198315E-03
 -0.32578549E-03 -0.18107976E-03 -0.19376499E-03  0.30020199E-02  0.13877941E-03
 -0.45657074E-03  0.11535683E-02 -0.46304060E-04  0.32161429E-04  0.18699404E-03
  0.10458856E-03  0.55453768E-04 -0.17409932E-03 -0.43387849E-04  0.38751236E-04
  0.77373821E-04 -0.26002699E-04 -0.27420176E-04  0.63362747E-06 -0.15004648E-06
  0.13737983E-06  0.58812871E-06 -0.69892610E-06 -0.93290243E-07 -0.63642572E-06
  0.11395139E-05 -0.27333413E-06 -0.40842361E-05  0.10136814E-05 -0.11123111E-07
  0.89639712E-06  0.13900310E-07  0.28743615E-07  0.21002394E-06 -0.96206404E-06
  0.40912477E-06 -0.12622006E-05 -0.26711962E-05 -0.45993357E-06 -0.13134086E-05
  0.62614995E-07 -0.28103425E-06 -0.22092543E-05 -0.17409860E-05  0.16539347E-05

  0.10468514E-05  0.30199560E-05  0.15025122E-05  0.44042238E-06  0.33237332E-06
 -0.49849802E-06 -0.74949046E-06  0.70943072E-06  0.99767893E-06 -0.25615247E-04
  0.27939057E-04 -0.67477526E-06  0.15418516E-04 -0.14551534E-04 -0.65298639E-05
 -0.28393091E-04  0.10933028E-04 -0.33243707E-04  0.11783124E-04 -0.22819755E-04
 -0.31522053E-04  0.17225365E-04  0.19871142E-03 -0.25272594E-04  0.42209515E-04
 -0.18017641E-04  0.55643468E-04 -0.18315199E-04  0.35397743E-04 -0.47155802E-04
 -0.38561847E-04  0.15339247E-03 -0.14135924E-04  0.44922638E-05 -0.20535603E-06
  0.82673085E-06 -0.75271487E-06 -0.35179913E-05  0.12974618E-07  0.67550090E-06
 -0.43411346E-07 -0.14956716E-06  0.31746514E-06 -0.30864929E-06 -0.24319010E-06
 -0.30966927E-05 -0.28799890E-04  0.34246149E-04 -0.76761761E-05  0.62879303E-04
  0.21835910E-05  0.27970806E-04 -0.90006670E-05 -0.11608170E-04 -0.20601053E-06
  0.24096256E-04 -0.65487663E-05 -0.12443641E-04  0.87638995E-04 -0.82648237E-05
  0.53204338E-05 -0.65244384E-05 -0.17936320E-04 -0.10458836E-06 -0.45135495E-05
 -0.37290996E-06 -0.28287026E-06  0.16526420E-05 -0.63093814E-06 -0.89683241E-06
 -0.30243685E-06 -0.60776498E-06  0.90638646E-06 -0.48174289E-06  0.72474163E-06
  0.47457164E-06 -0.11220079E-05 -0.42859814E-07  0.17002037E-05 -0.23881075E-06
  0.53034087E-06  0.22621421E-06  0.44276193E-06  0.10679323E-06 -0.31609459E-06
  0.60227679E-06  0.16151789E-06  0.62290397E-06 -0.25666539E-06  0.33487862E-06
  0.54378407E-05 -0.48230378E-04 -0.83661448E-05 -0.27365071E-05 -0.45064583E-04
  0.21473232E-04  0.26441208E-04 -0.10179544E-04 -0.23025783E-04 -0.65928413E-06
 -0.42241697E-05 -0.16550550E-06  0.28906755E-06 -0.11865618E-05  0.65543847E-06
  0.55734237E-06  0.57666956E-06  0.83013590E-06 -0.21327902E-05 -0.62078008E-04
 -0.69558484E-05  0.53456789E-05  0.42063324E-05 -0.97184760E-05 -0.33023235E-04
  0.24074075E-05  0.70035950E-05  0.62358464E-05  0.13728258E-04 -0.64616580E-05
 -0.30409287E-05  0.54707187E-05 -0.64532526E-06  0.24802669E-05 -0.26150505E-05
 -0.56287036E-05 -0.37881812E-04  0.79123525E-04  0.10744978E-03  0.24858121E-04
  0.35208536E-04 -0.67619139E-04  0.16840674E-04  0.11210512E-03  0.82747585E-04
 -0.12080101E-03 -0.10421010E-03 -0.69189576E-04  0.13877941E-03  0.13429162E-02
 -0.28884428E-03  0.73065346E-03  0.46537373E-04  0.10100128E-03  0.34398248E-04
 -0.34639528E-04 -0.44345336E-04 -0.41451136E-04 -0.12478530E-03  0.14505474E-04
 -0.25021640E-04  0.91442291E-06  0.35472242E-04  0.76803211E-06  0.18604374E-06
  0.12870023E-06  0.89132117E-07 -0.10270104E-05  0.37593675E-06  0.94578580E-07
 -0.54830531E-06 -0.33881510E-06  0.85934533E-06 -0.63505711E-06  0.19508851E-06
 -0.12410838E-06 -0.62956965E-06  0.30214848E-06  0.18169185E-06  0.83270580E-07
  0.31522555E-06 -0.37259052E-07 -0.16292285E-05 -0.23470042E-07  0.27402692E-06
 -0.49527702E-06  0.45386667E-06  0.58478737E-07  0.25616932E-06 -0.68004532E-06

 -0.11245701E-06 -0.20064972E-06 -0.54737866E-06  0.14301953E-06  0.43055243E-06
 -0.24640901E-06  0.43756421E-07 -0.62282028E-06 -0.10282919E-07 -0.14347316E-04
 -0.27751056E-04 -0.27881634E-04 -0.10797053E-04 -0.24268431E-04  0.62140807E-04
 -0.48613389E-05 -0.12199551E-04  0.13797736E-04 -0.38696140E-05  0.10922762E-04
  0.27973461E-04 -0.38134110E-05 -0.24625565E-04  0.77275664E-05 -0.16814977E-05
  0.13149102E-04 -0.17254655E-04  0.27740336E-04  0.21497076E-04  0.20648575E-05
  0.25207953E-04 -0.41329073E-04 -0.33229454E-04  0.20571086E-05  0.95463581E-05
 -0.21338967E-04  0.72345326E-06  0.10210467E-05 -0.14950070E-06 -0.84599489E-07
 -0.28799410E-06  0.35437241E-06 -0.10697334E-06  0.45852762E-07  0.20483896E-06
  0.78977209E-05  0.56452952E-05 -0.34318292E-04  0.12318862E-04 -0.14030325E-04
 -0.36554782E-04 -0.93277950E-06  0.15045162E-04  0.17773132E-04  0.20468967E-04
  0.16736782E-04  0.12608901E-04  0.29711822E-04 -0.28359522E-04 -0.70931345E-05
 -0.13333664E-04  0.13471216E-04 -0.16998469E-04  0.13855167E-06 -0.91036990E-07
  0.85919319E-06  0.49514747E-06 -0.91186037E-06  0.88153613E-06 -0.14492724E-06
  0.55202994E-06  0.31809094E-06 -0.11691651E-05  0.33422969E-06 -0.19626148E-05
 -0.15991522E-06  0.18450240E-06 -0.61980901E-06 -0.19423329E-06  0.74060480E-06
 -0.54422296E-06 -0.10969634E-05 -0.38995042E-06 -0.24879064E-06 -0.16048038E-06
  0.41488893E-06  0.30342638E-06 -0.46568031E-07  0.18411102E-06  0.12968555E-06
  0.18789347E-04  0.18219479E-04  0.24992806E-04  0.15418734E-04 -0.29855178E-05
  0.68658708E-06 -0.22870474E-05 -0.87003815E-05  0.59773748E-06  0.37666418E-06
 -0.17440961E-07 -0.61085194E-06 -0.31257139E-06  0.68487810E-06 -0.28711309E-06
 -0.24774511E-06 -0.30684965E-06  0.50394683E-06  0.30641697E-05  0.20414647E-04
 -0.81180108E-05  0.17313480E-06 -0.81889075E-05  0.92064897E-05  0.17617444E-04
  0.14240497E-05  0.36317062E-04 -0.11635972E-04 -0.12642757E-04  0.70397954E-05
  0.58558497E-05 -0.45917500E-05  0.60738595E-06  0.30444560E-06  0.14139805E-05
  0.40094830E-05 -0.57177223E-04 -0.34987230E-04 -0.12368933E-03 -0.88615071E-04
  0.18266786E-04  0.11715223E-03 -0.72085797E-04 -0.11101268E-03 -0.10278900E-03
  0.49505121E-04  0.25860408E-05  0.10188212E-03 -0.45657074E-03 -0.28884428E-03
  0.56104262E-03 -0.20966768E-03 -0.15375965E-04  0.62386106E-04  0.24715667E-05
  0.24377035E-04  0.27788184E-04  0.30852137E-04  0.17850890E-04 -0.92332461E-05
  0.30094419E-04  0.95814887E-05 -0.34236409E-05 -0.49591817E-06  0.24586823E-06
 -0.43093536E-06  0.24056234E-06  0.68429480E-06 -0.83507371E-06  0.37747485E-07
  0.51655455E-06 -0.35532194E-06  0.10413201E-06  0.52878535E-06  0.25934997E-06
 -0.91317507E-07  0.57861959E-07  0.21716484E-06  0.20421527E-06 -0.35547579E-07
 -0.54401623E-06 -0.73534096E-06  0.12387347E-05 -0.48338553E-06 -0.12195016E-06
  0.33104448E-06  0.97853051E-07  0.27533336E-06 -0.25219007E-06 -0.18099857E-06

  0.11142242E-05  0.41757159E-05  0.81825698E-06  0.91177303E-06  0.52670665E-06
 -0.74690983E-06 -0.13552919E-06  0.36369733E-06  0.25079707E-06 -0.34228096E-04
 -0.10834244E-04  0.15763230E-04  0.95425761E-05 -0.42301723E-04 -0.42223414E-05
 -0.84077663E-04 -0.36456976E-04  0.20915228E-04  0.95723452E-06  0.23850933E-04
 -0.53852847E-04  0.33840924E-04  0.20875829E-03 -0.33990976E-04  0.46988609E-05
 -0.75392057E-05  0.32434572E-04  0.98438952E-06 -0.75928829E-05 -0.56267239E-04
  0.12334644E-04  0.33132302E-04  0.24927213E-04 -0.47949533E-04 -0.32379151E-04
  0.65710070E-05  0.90126894E-07 -0.11421831E-05 -0.43219472E-07 -0.13088222E-10
 -0.51101181E-06 -0.58908119E-06 -0.96155586E-07  0.80324858E-06  0.18299351E-07
 -0.38931353E-04 -0.22190153E-04  0.17739564E-04 -0.32517404E-04  0.10443414E-03
 -0.14383071E-04  0.30311424E-04  0.54639339E-05 -0.58695895E-04 -0.59269854E-04
  0.21474939E-04  0.19166914E-05  0.13472104E-04 -0.21823329E-04 -0.90735343E-06
  0.54615844E-05 -0.33768559E-04 -0.37600000E-04 -0.43480302E-06 -0.38557169E-05
 -0.63678413E-06 -0.10352447E-05  0.38761441E-06 -0.13891934E-06 -0.12408197E-05
 -0.56612090E-06  0.67058207E-06  0.50239738E-06  0.75253441E-06 -0.21681538E-07
  0.49565495E-06  0.27565602E-06 -0.85966512E-06 -0.31868369E-06 -0.50621294E-06
 -0.68679428E-06 -0.41210608E-06  0.76003054E-06  0.49688010E-06 -0.13527287E-06
  0.91487952E-06  0.36953306E-06  0.26519216E-06  0.27452920E-06 -0.33882217E-07
  0.16604033E-05 -0.61453087E-04  0.33812996E-04 -0.20944341E-04 -0.46928155E-04
  0.16390371E-04 -0.19309705E-05 -0.18102277E-04 -0.11192653E-04  0.43156654E-06
 -0.33572548E-05  0.14529965E-05  0.98361209E-06 -0.15316481E-05 -0.16000567E-06
  0.30343833E-05  0.17835698E-06  0.76956645E-06  0.36196947E-05  0.17741693E-04
 -0.13701255E-04 -0.47246139E-04 -0.18451906E-04  0.21003586E-04 -0.22930593E-04
  0.13348723E-04  0.11765170E-04  0.70147526E-05  0.10343655E-04 -0.50143133E-05
 -0.33657918E-05  0.13486386E-05  0.21293831E-05 -0.12874577E-05 -0.45034650E-05
 -0.31744295E-05 -0.74099480E-04  0.15040508E-04  0.20331055E-03  0.12648803E-03
 -0.31688122E-04 -0.13073614E-03 -0.22584829E-04  0.17733764E-03  0.13131992E-03
 -0.28966480E-03 -0.14920362E-03 -0.55073201E-04  0.11535683E-02  0.73065346E-03
 -0.20966768E-03  0.15973855E-02  0.56561989E-04  0.20425397E-04  0.91687620E-04
  0.94824836E-04 -0.43206646E-04 -0.40164141E-04 -0.10070453E-03  0.14068446E-04
  0.15679998E-03 -0.21571313E-04  0.39165378E-04  0.11058097E-05 -0.91259572E-06
  0.35621035E-06  0.38687391E-06 -0.39273833E-06  0.20981672E-06  0.15460827E-05
  0.15140420E-06 -0.68377338E-06  0.31361793E-06  0.31320985E-06 -0.33578355E-06
 -0.29272355E-06 -0.78436835E-06  0.28699401E-06  0.21614394E-06  0.43869778E-07
  0.10442687E-05  0.10239158E-06 -0.31583137E-06 -0.24974396E-06 -0.81948397E-06
 -0.19653391E-05  0.43936562E-06  0.29270860E-06 -0.67103241E-06  0.12802457E-06

  0.92695801E-07  0.52295043E-07  0.63331744E-07  0.17085773E-06  0.89760032E-07
 -0.68685058E-06  0.36720633E-06 -0.81288554E-06  0.10905882E-05 -0.17234692E-04
  0.58833782E-05 -0.24021080E-04  0.12666323E-04 -0.21774119E-04  0.20065872E-04
 -0.22246251E-04 -0.60740116E-04  0.75551241E-05  0.48355086E-05 -0.91851833E-05
 -0.58794463E-04  0.25751009E-04 -0.13004915E-05 -0.95602704E-05  0.38197747E-05
 -0.18477100E-04 -0.38761017E-04  0.24129528E-04  0.45866957E-06 -0.10201003E-03
 -0.12449617E-04 -0.70052631E-05  0.13875120E-04 -0.54177594E-04 -0.66086732E-04
 -0.12006442E-04  0.47816519E-06 -0.64894429E-07  0.64408488E-06 -0.50738920E-06
  0.10023257E-05 -0.86007324E-06  0.32845779E-06 -0.50312838E-06  0.34516684E-06
 -0.57962868E-05 -0.41006204E-04  0.65244425E-04  0.72717664E-05 -0.14542593E-04
  0.16882889E-04  0.16328594E-04 -0.75880380E-05 -0.95107128E-06 -0.12448396E-04
 -0.16416993E-04  0.11976772E-04  0.63492899E-04 -0.65364087E-04  0.29377953E-04
  0.69318826E-05  0.46860230E-04  0.28562483E-05  0.18944042E-05  0.55587358E-06
  0.12882380E-05  0.14363856E-06  0.14599722E-06 -0.36864016E-06  0.48830367E-08
 -0.20455580E-06 -0.73933453E-06 -0.65949476E-06  0.23123974E-06  0.60001805E-06
  0.55656852E-06 -0.64122778E-06 -0.17977281E-06  0.23528575E-06 -0.16734971E-06
 -0.76852295E-06 -0.49954044E-06 -0.25728304E-06 -0.37516824E-06  0.91048456E-07
 -0.10997927E-06 -0.52662533E-07  0.41881403E-06  0.11722140E-05 -0.36474342E-08
  0.12471788E-04  0.70863155E-05  0.50179234E-05 -0.18694193E-04  0.42107685E-04
 -0.11710653E-05  0.19420261E-05 -0.15884414E-04 -0.12698987E-04  0.62911683E-06
 -0.15754962E-05  0.28747530E-06 -0.23728799E-06  0.24890923E-06  0.84543730E-07
 -0.36449616E-06  0.93582658E-07 -0.16869507E-06 -0.10596669E-04  0.16691618E-05
 -0.25846892E-04  0.69404796E-05 -0.79528075E-05 -0.11162831E-04  0.27783048E-04
 -0.17199916E-04  0.55215706E-05  0.24986943E-05  0.46482609E-05  0.25734501E-05
 -0.89641119E-05  0.13388732E-06  0.28198779E-05 -0.47870623E-05  0.19288129E-05
 -0.37403929E-05  0.11907837E-03  0.92451469E-04 -0.10601506E-04  0.13582447E-04
 -0.15083907E-04 -0.95470692E-04  0.12499568E-03  0.37061199E-04 -0.93095215E-04
  0.13213186E-04  0.51590403E-05 -0.80178038E-04 -0.46304060E-04  0.46537373E-04
 -0.15375965E-04  0.56561989E-04  0.63935675E-03  0.23605195E-03 -0.31223677E-05
 -0.34957294E-04 -0.92192240E-04  0.77124249E-04  0.27215936E-04 -0.68288832E-05
  0.12035902E-03  0.16271615E-04  0.34886400E-04 -0.71554408E-06 -0.90858329E-08
  0.41319668E-06 -0.10307302E-05 -0.24716248E-06 -0.38940074E-06  0.52961902E-06
 -0.28085129E-07  0.63633938E-07  0.37642089E-06  0.10324757E-05  0.14023193E-06
 -0.25791383E-07 -0.59526107E-07 -0.76782600E-07  0.59479793E-06  0.86203867E-06
  0.77671727E-07  0.76841575E-06 -0.12012981E-05 -0.81406823E-06  0.12936166E-06
 -0.13360849E-05  0.79870052E-06  0.19825879E-06 -0.16850596E-06  0.22700850E-06

  0.49083082E-06  0.33759321E-06 -0.68775360E-06  0.15250341E-06  0.29292163E-06
 -0.88089650E-07  0.25412548E-06  0.21322558E-06  0.68505151E-06 -0.92391056E-05
 -0.39727409E-04  0.20709054E-05  0.47561508E-05 -0.23853965E-04  0.37665946E-04
 -0.41829879E-05 -0.88396753E-06 -0.18751816E-04 -0.11971769E-04 -0.23509851E-04
 -0.37716572E-04  0.15008517E-04 -0.61059242E-05  0.14984788E-04  0.36693691E-04
 -0.16478677E-04 -0.50041979E-04  0.17895997E-04  0.29473230E-04 -0.73067601E-04
  0.71650909E-05  0.45759846E-05 -0.76213052E-05 -0.18926374E-04 -0.55233496E-05
 -0.49229161E-04 -0.33141290E-06  0.30173305E-06  0.11183652E-05 -0.13410363E-06
 -0.22072309E-06  0.15663589E-06 -0.14123528E-06  0.91450506E-07  0.40883726E-06
 -0.55691580E-05 -0.39329271E-05  0.46209233E-04 -0.45014394E-05  0.14739664E-04
  0.20733037E-04 -0.38076747E-05 -0.12551516E-04  0.40782379E-04  0.31573286E-04
  0.85403914E-06  0.26349106E-04  0.91679414E-05 -0.22409343E-04  0.96856993E-05
 -0.21386680E-04  0.93583911E-05  0.15611076E-04  0.85503083E-06  0.99078389E-06
  0.14056619E-05  0.25041256E-06  0.81203994E-07  0.63791000E-06 -0.78533157E-07
 -0.43608203E-07 -0.56685900E-06  0.12003928E-07  0.50479701E-06 -0.15944331E-05
  0.34877058E-06  0.53516230E-06 -0.22174723E-06  0.69513669E-06  0.46579792E-06
 -0.39141710E-06  0.13188197E-06 -0.10676487E-06  0.32488633E-06  0.38858321E-06
 -0.89983189E-06  0.59381888E-07  0.62087352E-07 -0.43326779E-07 -0.12789731E-06
 -0.47631798E-05  0.81652834E-05  0.28008539E-04 -0.14034879E-04  0.34736800E-04
  0.78581315E-05  0.21163807E-04  0.35648148E-06 -0.14017791E-05 -0.98005593E-07
 -0.24711545E-05  0.72326999E-06  0.32600714E-06  0.59833314E-06 -0.44557179E-06
 -0.30320538E-06  0.13966936E-06  0.82787942E-06  0.67779326E-06 -0.47299273E-04
  0.11144292E-04  0.86886437E-05  0.21012458E-05 -0.59335080E-05 -0.24572041E-04
 -0.83935097E-05  0.12659497E-04  0.25689837E-05  0.34059239E-05 -0.29997453E-05
 -0.44934294E-05 -0.44398747E-05  0.54059123E-05 -0.28818431E-05 -0.24326653E-05
 -0.25087339E-05  0.10863261E-03  0.38961820E-04 -0.32202343E-04  0.53015360E-04
 -0.18491951E-04 -0.80449834E-04  0.43851850E-04 -0.12638029E-04 -0.42246606E-04
  0.29466559E-04  0.31139353E-05 -0.89024686E-04  0.32161429E-04  0.10100128E-03
  0.62386106E-04  0.20425397E-04  0.23605195E-03  0.53988608E-03 -0.20868684E-04
 -0.60678828E-04 -0.47227570E-04  0.18902764E-04 -0.42173865E-04  0.64607961E-05
  0.14492944E-04  0.38015639E-05 -0.49551304E-05 -0.48003296E-06 -0.30460190E-06
 -0.37179303E-06  0.24451583E-07  0.56380582E-07  0.42363909E-07  0.28343365E-06
  0.40076493E-06 -0.13543824E-06 -0.61453548E-06  0.21098945E-05 -0.59504790E-07
 -0.18848126E-06  0.13000164E-05  0.58190962E-06 -0.30440196E-06  0.37914226E-06
 -0.48704278E-06 -0.11526657E-06  0.82853654E-06 -0.95020357E-06  0.32786649E-06
 -0.60765794E-06  0.40089066E-06  0.37288237E-08  0.32721784E-06  0.62854975E-06

  0.23013119E-06 -0.78139001E-06  0.56544780E-06  0.47460587E-06 -0.10691528E-06
  0.36881032E-06  0.62961794E-06  0.92854717E-07 -0.69371764E-06 -0.26562716E-04
  0.45170774E-04  0.67801325E-04 -0.28635346E-04 -0.98690853E-05 -0.46423976E-04
 -0.76897254E-05  0.56236174E-05  0.31058450E-04 -0.48025617E-04 -0.35981595E-04
 -0.33710010E-05 -0.95583539E-04  0.49233752E-04  0.14841649E-04 -0.81663745E-04
  0.17892676E-04  0.10428075E-04 -0.59735982E-05  0.85888272E-05  0.35705650E-05
  0.31341448E-04  0.10695517E-05 -0.15280481E-04  0.28627588E-04 -0.14875631E-04
  0.22140616E-04 -0.17777086E-06  0.45756338E-06 -0.14741186E-05 -0.69754193E-06
  0.84224508E-06  0.20217714E-06 -0.38364168E-06 -0.14260091E-06  0.85572178E-07
 -0.24260052E-05 -0.26644353E-04 -0.23227116E-04  0.31786384E-04  0.46488947E-04
 -0.25275080E-04  0.64658211E-05 -0.14792737E-05 -0.19213814E-05  0.19663541E-04
 -0.17424568E-04  0.14187130E-04  0.36701643E-04 -0.34307225E-04 -0.29263233E-04
 -0.37022616E-04  0.11008689E-04 -0.21570615E-04 -0.73400652E-06  0.27487739E-06
  0.10072810E-05  0.20515172E-06  0.25637696E-07  0.10675991E-06  0.14173598E-06
  0.36708236E-06  0.72763071E-07 -0.54533237E-06  0.53437428E-06  0.33247605E-06
 -0.49465454E-06 -0.30822501E-06 -0.28302972E-06 -0.89319359E-06  0.69308496E-06
  0.76610478E-07 -0.11640561E-06  0.91605352E-06 -0.63736478E-07 -0.31902728E-06
  0.66650025E-06 -0.11038544E-06 -0.10042514E-06 -0.21804635E-06  0.16228204E-06
  0.42092028E-04  0.27165705E-04 -0.38569426E-05  0.11846752E-04 -0.27294790E-04
  0.18912005E-04 -0.20197570E-04  0.64047069E-05  0.18119984E-04  0.40182175E-06
  0.18874823E-05  0.87018913E-08 -0.60306467E-06 -0.42964825E-06  0.61795425E-06
  0.46952926E-06 -0.30924134E-06  0.46600665E-06  0.26478565E-05 -0.17725456E-04
  0.10463608E-04  0.55545360E-05 -0.20719239E-04  0.22548240E-04  0.65674198E-05
  0.13668375E-04  0.96849917E-05 -0.47302427E-06 -0.18428110E-05 -0.15184522E-05
  0.19482743E-05  0.87907033E-06 -0.23066864E-06  0.13406203E-05  0.11013675E-05
  0.38624200E-06 -0.46287703E-05 -0.23162459E-04  0.63428078E-04 -0.65384916E-04
  0.11565542E-03  0.73355305E-04  0.17668748E-04  0.24868524E-04  0.72750628E-04
 -0.90850180E-04 -0.83038204E-04 -0.66194434E-04  0.18699404E-03  0.34398248E-04
  0.24715667E-05  0.91687620E-04 -0.31223677E-05 -0.20868684E-04  0.71218691E-03
  0.21252584E-03  0.67518769E-04 -0.11940308E-03  0.21326084E-04 -0.19505066E-04
 -0.95094268E-06 -0.10115946E-03 -0.35438942E-04  0.66459575E-06  0.33793297E-06
 -0.14302758E-05  0.79741838E-06  0.23164885E-06 -0.27437686E-06  0.19606239E-06
  0.20969740E-06 -0.31090730E-06  0.13106031E-05 -0.91431607E-06  0.56332243E-06
  0.84743388E-06 -0.11240813E-06 -0.27371875E-06 -0.63450237E-06 -0.36556974E-06
  0.29773085E-06 -0.11284354E-05  0.88832152E-06 -0.52826937E-06 -0.20719377E-06
 -0.10474502E-06 -0.36368450E-07  0.52513175E-07 -0.10380321E-05  0.12726707E-06

 -0.37862680E-06 -0.38884361E-06  0.38366144E-06 -0.69756394E-06 -0.14714799E-06
  0.25922908E-06 -0.52042954E-06 -0.30992588E-06 -0.28203216E-06 -0.15105242E-04
 -0.63247812E-04  0.30167068E-04  0.23022640E-06 -0.89237947E-05 -0.17789552E-04
  0.20429739E-04 -0.12808814E-04  0.40094747E-05  0.16583667E-04 -0.36161933E-04
 -0.86527835E-05 -0.27665122E-04  0.22203361E-04  0.99682606E-05 -0.42308961E-04
  0.53459247E-05 -0.40219684E-04 -0.64127508E-05 -0.55401389E-04  0.21305823E-05
  0.10080880E-04  0.69139390E-05 -0.30355557E-04  0.10768595E-04 -0.43125475E-05
  0.11069018E-05 -0.61597679E-06 -0.21725950E-07 -0.85295410E-06 -0.14255971E-07
  0.10115744E-05 -0.33988978E-06 -0.25065893E-06  0.46635913E-07  0.29119159E-06
 -0.54437474E-05 -0.46869555E-05 -0.25379189E-04 -0.67847619E-06  0.33799278E-04
 -0.11428605E-04 -0.30764087E-05 -0.54374163E-05 -0.47193973E-05  0.15204242E-05
  0.79786796E-05  0.79009053E-05  0.34151363E-04 -0.31640319E-04  0.56902726E-06
  0.96834122E-05  0.27054001E-06 -0.16214106E-04  0.24294731E-06  0.52329806E-06
  0.51086397E-06  0.56081504E-08 -0.34684240E-06  0.26495076E-06 -0.25861822E-06
  0.19352438E-06  0.21233599E-06 -0.71755895E-06  0.73533129E-06  0.85903184E-07
  0.18155085E-06 -0.59775323E-06 -0.21639318E-06 -0.68506009E-06  0.28325349E-06
 -0.21214333E-06  0.43715700E-06  0.13270589E-05  0.11277573E-06  0.10884659E-06
 -0.66666078E-06 -0.49128300E-07  0.18529608E-07 -0.86638904E-07 -0.23619163E-06
  0.18023914E-04 -0.18723820E-05  0.32722226E-04  0.33167658E-05 -0.22510827E-04
  0.88188471E-05 -0.17410679E-04  0.37868045E-05  0.18894417E-04  0.23819008E-06
 -0.74997919E-06 -0.14781734E-06  0.39910057E-06 -0.65096113E-06  0.29199660E-06
  0.74603162E-06  0.16139872E-06  0.26779447E-06  0.22039873E-04  0.22507090E-04
  0.56915869E-05 -0.14265794E-04 -0.36347275E-05  0.20459395E-04  0.91791187E-05
  0.72108360E-05  0.30244112E-04 -0.15242712E-05 -0.34568861E-06  0.16992763E-05
  0.11117737E-05 -0.96308954E-06  0.17062082E-05  0.68992983E-06  0.85986316E-06
  0.19614302E-05 -0.63597943E-04 -0.34333014E-04  0.70859370E-04 -0.36663643E-04
 -0.16606135E-04  0.75174002E-04 -0.48826566E-04  0.25480170E-04  0.14930638E-04
 -0.44043102E-04 -0.61999984E-04 -0.14514363E-04  0.10458856E-03 -0.34639528E-04
  0.24377035E-04  0.94824836E-04 -0.34957294E-04 -0.60678828E-04  0.21252584E-03
  0.53862234E-03  0.44111017E-05  0.18348638E-04  0.30189863E-05 -0.13665364E-04
  0.50510802E-04 -0.41519742E-04  0.62759287E-05  0.56834772E-07  0.46157568E-06
 -0.50209127E-06  0.23491454E-06  0.14401166E-05 -0.23133311E-06  0.21028057E-06
 -0.29764767E-07 -0.38859071E-06  0.76549459E-06 -0.70317028E-06 -0.48978306E-06
 -0.62300276E-07  0.40727095E-06 -0.85685130E-07  0.69758815E-07  0.23524873E-07
  0.35578025E-06 -0.18659145E-06 -0.13305558E-06 -0.54198631E-06 -0.35961233E-07
  0.41666975E-06 -0.11143680E-06  0.44272586E-08 -0.38109430E-06 -0.40717040E-06

 -0.26268599E-06  0.29137584E-06  0.35103127E-06  0.33942259E-06 -0.10125579E-07
 -0.29638205E-06  0.38685949E-06 -0.29869463E-06 -0.12116043E-05  0.12375145E-04
  0.17408021E-04 -0.23385373E-05 -0.12339702E-04  0.23111362E-04  0.23279007E-05
  0.61935509E-05  0.15311409E-04 -0.16770064E-04 -0.60294875E-09  0.25882735E-04
  0.80152994E-04 -0.28702441E-04  0.19629864E-04 -0.41989552E-04 -0.23919059E-07
  0.20104052E-04  0.44034695E-04 -0.12434540E-04  0.18149831E-04  0.55607519E-04
  0.31663283E-04 -0.53296874E-05 -0.18270286E-04  0.23973060E-04  0.21094577E-04
  0.31112628E-04  0.16483966E-06 -0.19608598E-07 -0.13696655E-06  0.89351529E-07
 -0.14264067E-06  0.16382791E-06 -0.32126952E-06  0.11935044E-06 -0.36726329E-06
  0.78348865E-05  0.32176617E-04 -0.17449991E-04 -0.49252924E-05  0.14829906E-04
 -0.36154760E-05 -0.81813620E-05  0.92144503E-05 -0.13959734E-04 -0.34042733E-05
  0.38149780E-04 -0.39771416E-05 -0.21607132E-04  0.24048300E-04 -0.37139056E-05
  0.22597854E-05  0.60489367E-05 -0.21873180E-04 -0.63529783E-06 -0.32646175E-06
  0.27121726E-06  0.13513729E-08  0.55071098E-06 -0.24626483E-06 -0.21607285E-06
 -0.22604144E-07  0.36144707E-07  0.16566364E-06 -0.15134771E-06 -0.11204657E-06
  0.98362334E-07 -0.85884022E-07  0.12204897E-06  0.25969092E-06 -0.44250263E-07
  0.23582340E-06  0.98793107E-07 -0.77570143E-06 -0.14942279E-06  0.18827540E-06
 -0.53281636E-07  0.47279592E-08  0.75397711E-08 -0.21965000E-06 -0.55340976E-06
  0.14973210E-04 -0.35707290E-05 -0.40387336E-05 -0.92053410E-05 -0.30566029E-05
  0.12896723E-04  0.64027497E-05  0.32280454E-05  0.14050704E-04  0.14690639E-06
  0.29872531E-07  0.22813939E-06 -0.10272280E-06  0.89706027E-07  0.56392132E-06
 -0.10758499E-06  0.14032740E-06 -0.70127964E-07  0.18736416E-05 -0.19755486E-04
  0.14523830E-04 -0.62173072E-05  0.14714759E-04 -0.44965640E-05  0.39779803E-05
 -0.46063727E-05  0.10111010E-04  0.49736266E-06  0.11006871E-05  0.23925702E-05
 -0.35212635E-05  0.17847727E-05  0.16494094E-05 -0.22458939E-05  0.52280403E-06
  0.34663913E-05  0.46028977E-04  0.17497258E-04  0.26225632E-04  0.10742455E-05
  0.30751937E-04 -0.33796836E-04  0.24289331E-04  0.34786167E-04  0.50422962E-04
  0.24787640E-04 -0.55303749E-04  0.14071908E-04  0.55453768E-04 -0.44345336E-04
  0.27788184E-04 -0.43206646E-04 -0.92192240E-04 -0.47227570E-04  0.67518769E-04
  0.44111017E-05  0.30675405E-03  0.29365307E-04  0.13725805E-04 -0.13809516E-04
  0.20848325E-04 -0.32773019E-04 -0.76719474E-04  0.12222397E-06  0.23972976E-07
  0.29754079E-06  0.25879916E-06 -0.23204207E-06 -0.17617817E-06 -0.99685212E-07
 -0.14384950E-06  0.44329920E-07 -0.25321635E-06  0.43467513E-07  0.52690622E-06
  0.56307690E-06 -0.16674528E-06 -0.36424868E-06 -0.32443302E-06 -0.25755745E-06
 -0.66321417E-07 -0.11302633E-06 -0.72657034E-06  0.20941485E-06  0.11842262E-06
  0.11374092E-06 -0.17049453E-06  0.72806030E-07 -0.43667362E-07  0.61303106E-06

 -0.46256529E-06  0.21555549E-05 -0.16917758E-06 -0.29412526E-05  0.13576444E-05
 -0.85706145E-06 -0.11385615E-05 -0.72962419E-06  0.36190774E-06 -0.29107788E-04
  0.51912902E-05 -0.23951359E-04  0.68890545E-04  0.22822787E-04 -0.42844205E-04
  0.20835187E-04  0.33405922E-04  0.89563902E-05  0.11290436E-03  0.36011932E-04
  0.49511270E-05 -0.88130592E-04  0.46910945E-04  0.10807491E-04  0.31974510E-04
 -0.64938116E-04  0.39428172E-06  0.84215800E-05 -0.21851482E-04 -0.19557539E-04
 -0.35758088E-04 -0.82797381E-05  0.15256575E-04  0.34624015E-04 -0.35630107E-04
 -0.56522554E-05 -0.66085006E-06  0.16486057E-06 -0.47215597E-06  0.25415750E-05
  0.72274703E-06 -0.47088069E-06  0.11069216E-05  0.47741584E-06 -0.26679564E-06
  0.26366588E-04  0.34942206E-04 -0.11349363E-04 -0.80113863E-04 -0.67871802E-05
 -0.53348325E-05 -0.92137806E-05 -0.23413839E-05 -0.49957646E-04 -0.21435916E-04
  0.15683452E-04 -0.67907564E-04  0.13436042E-03 -0.58175805E-04 -0.15132129E-04
  0.18252435E-04  0.17254797E-04  0.96085927E-05  0.19223372E-05  0.16736937E-05
  0.45571010E-06 -0.84248619E-06 -0.56019144E-06  0.22438822E-06 -0.20522929E-06
 -0.79118747E-07  0.39474539E-06 -0.16312187E-05 -0.14906997E-05 -0.80833779E-06
  0.77235454E-06 -0.13563552E-05 -0.54397191E-06 -0.46023542E-07 -0.14170057E-05
 -0.13726777E-06  0.25409217E-05  0.16078301E-05 -0.69725870E-06  0.82618993E-06
 -0.72121129E-06 -0.20232881E-06  0.55806586E-06 -0.17262340E-06 -0.47026867E-06
 -0.18351472E-05 -0.14571714E-05 -0.11196613E-04  0.19595516E-04  0.60823047E-07
  0.21767109E-04  0.18703751E-05 -0.72383429E-05 -0.13841995E-04  0.59211995E-06
 -0.14887111E-06  0.89026581E-06  0.78335538E-06  0.55528140E-06 -0.12584413E-05
  0.11260885E-05  0.62711802E-06 -0.49332198E-06  0.56533513E-04  0.31492622E-05
 -0.22900026E-04 -0.26864645E-04  0.18850059E-04  0.26640963E-04 -0.55887426E-05
  0.21042743E-04  0.20724798E-04  0.23250757E-05  0.40595632E-05  0.83578421E-05
 -0.56715409E-05 -0.21513605E-05  0.32411502E-05 -0.45801152E-05 -0.10341722E-05
  0.27498867E-05  0.16296866E-04  0.58590427E-05 -0.44739167E-04  0.22166611E-04
 -0.92027718E-04 -0.92990909E-04  0.42708022E-04  0.30293578E-05 -0.69819299E-04
 -0.22900496E-04  0.20525117E-04  0.37431582E-04 -0.17409932E-03 -0.41451136E-04
  0.30852137E-04 -0.40164141E-04  0.77124249E-04  0.18902764E-04 -0.11940308E-03
  0.18348638E-04  0.29365307E-04  0.14754325E-02 -0.10969814E-03 -0.23172208E-03
  0.40808507E-03  0.12541381E-03  0.23697370E-04 -0.74316302E-06 -0.44934909E-06
  0.28690800E-06 -0.78917013E-06  0.26817764E-07 -0.24760461E-06 -0.33456116E-08
  0.24095431E-06  0.53788594E-07  0.20081667E-05 -0.45625126E-06 -0.16301502E-05
  0.73343778E-06 -0.87233573E-06  0.62149215E-06 -0.87747239E-06  0.96478560E-06
 -0.12063690E-06  0.58549244E-06  0.11596941E-05 -0.99697981E-06  0.18176291E-06
 -0.11909009E-05 -0.19630352E-06 -0.52781201E-07 -0.18705318E-06  0.33011487E-06

  0.15629331E-06  0.19140565E-05  0.41241249E-06  0.68296402E-06 -0.14183295E-06
 -0.42822187E-06 -0.10075009E-06  0.19918723E-06 -0.75300507E-06 -0.21996234E-04
  0.62632159E-04 -0.26789251E-05 -0.22175009E-04 -0.14612739E-04  0.11656840E-04
 -0.34823670E-04 -0.36789876E-05  0.88532099E-07 -0.10246824E-04  0.43074345E-04
  0.43973968E-04  0.59180006E-06 -0.32240401E-05 -0.70453193E-06 -0.17957981E-04
  0.55430857E-05  0.52954430E-05  0.19589477E-04  0.86832944E-04  0.39343186E-04
 -0.47560108E-04  0.12245669E-03 -0.13778632E-04 -0.15454145E-04 -0.69640547E-05
  0.40543180E-04 -0.15772516E-06  0.36032190E-06  0.45047564E-06  0.31043393E-07
  0.84039651E-06  0.20863800E-06 -0.88090602E-06  0.56762136E-07  0.16103119E-06
  0.14210539E-04 -0.31827986E-05  0.19658261E-04 -0.45735667E-05 -0.16538591E-04
  0.26312231E-04 -0.10869363E-04 -0.21219633E-05  0.45388904E-04 -0.17670392E-04
 -0.70098323E-04  0.57151581E-07 -0.35940119E-05 -0.20717042E-05 -0.13979163E-04
 -0.80663213E-05 -0.13998147E-04  0.65874462E-05  0.25184659E-06  0.25562531E-05
  0.56257054E-06  0.31437900E-06 -0.20976502E-06  0.48881976E-06  0.51982360E-06
 -0.74884124E-07 -0.37191883E-06  0.40117612E-06 -0.11471844E-05 -0.93961412E-07
  0.72962243E-07 -0.25980093E-05  0.42526889E-06 -0.88287880E-06  0.24692541E-06
  0.28758858E-06 -0.57747600E-06 -0.41200755E-06  0.85460235E-06 -0.23370059E-06
  0.35976423E-06 -0.61735730E-07 -0.23465197E-06 -0.30234185E-06 -0.12390559E-05
 -0.22008795E-04  0.93708810E-04  0.30384813E-05 -0.87788560E-05  0.68980126E-04
  0.57781285E-06  0.16797784E-05  0.14707735E-04 -0.24991010E-04  0.11340802E-05
  0.61095714E-06  0.46654353E-06  0.20262205E-06 -0.54592536E-06  0.14471284E-06
 -0.94397345E-06 -0.11950828E-06 -0.90038450E-06  0.12327717E-04 -0.57239786E-05
  0.16415049E-04 -0.17404214E-04  0.19727719E-04 -0.13782021E-04  0.21227714E-04
 -0.10937772E-04 -0.33505306E-04 -0.15835848E-05  0.11596839E-06  0.19529635E-05
  0.10068355E-05  0.32009245E-05 -0.10488258E-05  0.11620529E-05 -0.22451496E-06
  0.17940802E-05  0.29233927E-04 -0.38519960E-04 -0.46457399E-04 -0.20264478E-04
  0.11256707E-03 -0.22529981E-04  0.50461847E-04 -0.50042152E-04 -0.32698108E-04
  0.61406404E-04  0.20551501E-03  0.66440944E-05 -0.43387849E-04 -0.12478530E-03
  0.17850890E-04 -0.10070453E-03  0.27215936E-04 -0.42173865E-04  0.21326084E-04
  0.30189863E-05  0.13725805E-04 -0.10969814E-03  0.10902876E-02 -0.14297961E-03
  0.42957006E-03 -0.37828628E-04 -0.13257167E-03 -0.27627898E-06 -0.72649113E-06
 -0.47205704E-06 -0.17018800E-06 -0.26537953E-07  0.30986710E-06 -0.39730578E-06
  0.17515471E-06  0.16841417E-06 -0.87964710E-06  0.50577814E-06 -0.18182317E-06
 -0.10140200E-06  0.69493268E-06  0.12729043E-06 -0.30717784E-06  0.39728204E-07
  0.66713780E-06  0.39834337E-06 -0.11788227E-05  0.51976121E-06  0.39611368E-06
 -0.15703096E-06  0.44736685E-06  0.58153410E-06  0.28801764E-06 -0.72486999E-06

  0.15988933E-06 -0.29981319E-06  0.22297270E-06  0.37601019E-06 -0.35127193E-06
  0.15877354E-06  0.12406308E-06  0.34821307E-06  0.10983838E-06  0.53067435E-05
  0.31296967E-05  0.35166010E-04 -0.14300771E-04  0.22095788E-05  0.26031829E-04
  0.38789465E-05 -0.19444100E-05  0.14181124E-04  0.11538554E-04 -0.70457106E-05
  0.25321413E-06  0.13028446E-04  0.12119656E-04 -0.32927957E-04 -0.41334349E-05
  0.18660129E-04 -0.16505630E-05 -0.17898280E-04 -0.44514126E-05 -0.23358550E-04
  0.17620841E-04 -0.30497857E-04  0.12237149E-05  0.71283721E-05  0.17894688E-04
  0.43393911E-05 -0.81315487E-07  0.28556473E-06 -0.36710600E-06 -0.30466824E-06
 -0.22815951E-06  0.48929433E-06  0.64888341E-07 -0.57352636E-07  0.13722589E-06
  0.13011175E-05  0.42154355E-04 -0.18555603E-04  0.62548179E-05  0.11048194E-04
 -0.75961330E-05 -0.12478210E-04 -0.26851386E-05  0.33682325E-04  0.11744645E-04
  0.18847169E-04  0.10343303E-05 -0.31540048E-04  0.11990301E-04  0.29188467E-04
 -0.10041223E-04  0.24689702E-05  0.13035798E-05 -0.22970651E-07 -0.28827690E-06
 -0.24934096E-06  0.23887614E-06  0.46154110E-06 -0.71769332E-06 -0.18766532E-06
  0.56173794E-07  0.13962873E-06  0.52016445E-06  0.95229129E-07 -0.12086304E-06
  0.26996806E-07  0.75563039E-06 -0.29181535E-06 -0.10043338E-06  0.46607158E-07
  0.23828942E-07 -0.22899986E-06 -0.77362282E-06 -0.98002763E-06  0.62784497E-07
 -0.22867659E-07  0.32481363E-06 -0.10705334E-06  0.48454081E-06  0.48298391E-08
  0.52754843E-05 -0.88245343E-05 -0.55229813E-06  0.90659504E-05 -0.10567160E-04
 -0.26768384E-04  0.41190483E-05 -0.28297250E-05  0.83162955E-05 -0.23367838E-06
 -0.51030101E-06 -0.28134628E-06 -0.53130041E-07  0.26441860E-06 -0.24612502E-07
  0.25393546E-06 -0.28321439E-06  0.42521850E-06 -0.10199128E-04  0.23343130E-08
  0.42024871E-05  0.43011298E-05 -0.61514681E-05 -0.28915971E-05 -0.45017446E-05
 -0.74216076E-05  0.16537573E-04 -0.41034589E-06 -0.28545499E-05 -0.27118249E-05
  0.19669971E-05 -0.21826114E-05  0.11784972E-05  0.16637162E-05  0.12158801E-05
 -0.13531970E-05 -0.29902925E-04 -0.27826669E-04  0.26605573E-04  0.17594097E-05
 -0.14687298E-05  0.14068982E-04 -0.34026776E-04 -0.40641776E-06  0.80962290E-06
 -0.14924691E-04 -0.17664734E-04 -0.12053993E-05  0.38751236E-04  0.14505474E-04
 -0.92332461E-05  0.14068446E-04 -0.68288832E-05  0.64607961E-05 -0.19505066E-04
 -0.13665364E-04 -0.13809516E-04 -0.23172208E-03 -0.14297961E-03  0.32258232E-03
 -0.92907270E-04  0.19266600E-04 -0.31301282E-04  0.10168351E-06 -0.52409140E-07
  0.49156529E-06  0.22721210E-06  0.45003444E-07 -0.18431465E-06 -0.10147526E-06
 -0.15872332E-06 -0.91449969E-08 -0.47233698E-06  0.12848287E-06  0.17698868E-06
  0.14754007E-06  0.46012780E-08 -0.49012466E-07  0.38340732E-06  0.27371165E-07
 -0.15798709E-06 -0.39061527E-06  0.14834428E-07 -0.51594406E-06 -0.82674667E-07
  0.76461857E-06  0.74461323E-07 -0.49529856E-06 -0.93743711E-07 -0.40091161E-06

  0.11952795E-05  0.16282050E-05 -0.19370730E-06 -0.31628916E-06  0.52476680E-06
 -0.74129748E-06 -0.74080564E-06 -0.83607767E-06 -0.36344626E-06 -0.40058929E-04
 -0.67620726E-05  0.14217012E-04 -0.16796863E-04  0.31826233E-04 -0.93810831E-05
 -0.71321986E-04 -0.18057275E-04 -0.21588120E-04  0.33734683E-04  0.40022764E-04
  0.20008293E-04 -0.25557885E-04  0.75812968E-04 -0.78319377E-05 -0.30834853E-04
 -0.26640267E-04 -0.16688254E-04  0.27981354E-04  0.17352804E-04 -0.37726726E-05
 -0.34568577E-04  0.93190605E-04  0.56235855E-05  0.12387538E-04 -0.13523763E-04
  0.41191218E-04 -0.55231845E-07 -0.92555372E-06 -0.69972983E-06  0.12420846E-05
 -0.20634764E-06 -0.16581375E-06  0.71141984E-06  0.31843419E-06  0.44087102E-06
  0.26576939E-04 -0.34412596E-04  0.19966282E-05 -0.42571013E-04  0.53926962E-04
  0.52707285E-05 -0.32456113E-04 -0.10944372E-04 -0.30769107E-04 -0.19095853E-05
 -0.98667150E-05 -0.34543064E-05  0.36305365E-04 -0.66851385E-04  0.44024138E-05
  0.17347331E-05  0.98547259E-05 -0.78134818E-05 -0.11821599E-06  0.77245608E-06
  0.47832214E-06  0.45863854E-06 -0.37282164E-06  0.23714352E-06 -0.70569078E-06
  0.70591831E-07 -0.89908461E-08 -0.14182489E-05 -0.12658775E-05 -0.17388229E-06
  0.35091878E-06 -0.13056560E-05 -0.21561919E-06  0.14112772E-06 -0.72078107E-06
 -0.83291109E-06 -0.48337146E-06  0.13762949E-05 -0.66748804E-06  0.65424535E-07
 -0.29514103E-07  0.16722871E-06 -0.49669415E-06  0.49732160E-06 -0.29666769E-06
 -0.74938821E-05  0.20484722E-04  0.46102929E-05 -0.30653575E-04 -0.10317467E-04
  0.13526423E-04 -0.14797348E-04  0.12663406E-04  0.13235257E-04  0.15428035E-05
 -0.16793256E-05  0.39982855E-06  0.21607501E-06  0.75963217E-06 -0.43602518E-06
 -0.36586399E-06  0.53960378E-06 -0.67222008E-06  0.25331218E-04 -0.19234596E-04
  0.12641953E-04 -0.51456219E-04 -0.33096083E-04  0.23336400E-04  0.45096606E-04
  0.14575552E-04  0.11520660E-04 -0.13634237E-05  0.26324324E-05  0.54184603E-05
 -0.20738638E-05 -0.19644190E-05  0.28789761E-05 -0.10205709E-05  0.12008487E-05
  0.12115529E-05  0.15739828E-04  0.25031687E-04 -0.18686727E-04 -0.12333825E-04
 -0.77864320E-04 -0.54867201E-04 -0.92305149E-05 -0.25663254E-04 -0.80883069E-04
  0.12264723E-04  0.53913626E-04 -0.14690859E-04  0.77373821E-04 -0.25021640E-04
  0.30094419E-04  0.15679998E-03  0.12035902E-03  0.14492944E-04 -0.95094268E-06
  0.50510802E-04  0.20848325E-04  0.40808507E-03  0.42957006E-03 -0.92907270E-04
  0.97083931E-03 -0.25206055E-04  0.95359708E-05 -0.10642468E-05  0.18842892E-06
 -0.66851077E-07 -0.81530100E-07  0.40128894E-06 -0.67531370E-07 -0.74918574E-06
  0.33043978E-06  0.34148784E-06  0.10746755E-05 -0.67244828E-06  0.22011529E-06
  0.48533623E-06  0.89140022E-06  0.43622519E-06 -0.14210249E-05  0.37695487E-06
  0.11989030E-05  0.56381978E-06  0.44474169E-06 -0.93603969E-06 -0.10863132E-06
 -0.13012764E-05  0.18445808E-06  0.50300213E-06 -0.14639170E-06 -0.53470210E-07

  0.10929623E-05 -0.22001715E-06  0.99195338E-06  0.13538587E-06  0.17727048E-06
  0.12680870E-06  0.24071709E-06 -0.11471310E-06  0.56969248E-06  0.15852123E-05
 -0.26764945E-05 -0.34639733E-04 -0.11708344E-04  0.13037770E-04  0.12180669E-04
  0.11396140E-05 -0.27322240E-04  0.20438119E-05  0.25311814E-04  0.26194001E-04
 -0.53124830E-04  0.20276386E-04 -0.25081551E-04  0.13226195E-04  0.35430995E-05
  0.75664164E-05 -0.22004670E-04  0.24221793E-04 -0.11039071E-04  0.86705428E-06
 -0.40689754E-04  0.10569208E-04  0.95814765E-06 -0.21622115E-04 -0.13512731E-04
  0.10758888E-04 -0.23136628E-06  0.54349674E-06 -0.11272211E-05  0.14452179E-06
  0.33965738E-06  0.28295056E-06 -0.75301444E-07 -0.43361505E-06 -0.38276903E-06
  0.15409289E-04 -0.20360612E-04  0.25316998E-04 -0.53671269E-05  0.11106982E-04
 -0.21725552E-05  0.24123702E-05  0.73155902E-06 -0.31010772E-05  0.57762323E-05
 -0.17592144E-05 -0.26270616E-04 -0.44122876E-04  0.39482068E-05 -0.80495809E-05
 -0.65358677E-05 -0.34069816E-04  0.12663319E-04  0.13147951E-06  0.52906848E-06
 -0.33355592E-06  0.15552189E-06  0.44617368E-06 -0.31646676E-06  0.25513984E-06
  0.50093822E-06 -0.34012188E-06  0.56891210E-06  0.43299395E-06 -0.14547871E-05
 -0.98167299E-07 -0.94179014E-07 -0.22029070E-06 -0.28575670E-06  0.50112372E-06
  0.45835367E-06 -0.85355939E-07  0.88161230E-06 -0.37982735E-06  0.35172242E-06
 -0.59213384E-07  0.79671170E-07 -0.25743241E-06 -0.41663887E-06  0.12635318E-06
  0.38552803E-05  0.65734296E-06 -0.93000921E-05  0.16322496E-04  0.14115101E-04
 -0.15838229E-04  0.36611952E-05 -0.61810374E-05  0.13649798E-04 -0.14114125E-05
  0.57323726E-06 -0.50865823E-06  0.86410647E-06 -0.11536099E-06 -0.25178034E-06
 -0.16600773E-06 -0.23405091E-06 -0.41248995E-06  0.21356660E-04  0.21100294E-04
 -0.12206202E-05  0.21345372E-04 -0.92367318E-05 -0.27933067E-04  0.18218614E-05
 -0.10791047E-04 -0.75320790E-05  0.42141967E-05  0.31267239E-05  0.33088014E-05
 -0.16936038E-05 -0.24211009E-07  0.11858515E-05  0.33771207E-06  0.30576158E-05
  0.82156653E-06 -0.34742656E-04 -0.24668104E-04 -0.62877512E-04  0.58149512E-04
 -0.43418950E-04 -0.10256477E-03 -0.37787218E-05  0.69236507E-04 -0.40880314E-04
 -0.32972480E-04 -0.74295647E-05  0.29332267E-04 -0.26002699E-04  0.91442291E-06
  0.95814887E-05 -0.21571313E-04  0.16271615E-04  0.38015639E-05 -0.10115946E-03
 -0.41519742E-04 -0.32773019E-04  0.12541381E-03 -0.37828628E-04  0.19266600E-04
 -0.25206055E-04  0.42846494E-03  0.10495336E-03  0.47805774E-06 -0.56984335E-06
  0.16370685E-05 -0.30099865E-06  0.40608538E-06 -0.28137762E-06  0.84985890E-07
  0.25959286E-06  0.14579645E-06 -0.23000142E-06  0.29098375E-06 -0.32313107E-06
  0.79790359E-07  0.10859650E-06  0.85310065E-06  0.46862934E-06  0.11345483E-05
 -0.12322153E-05 -0.14956475E-06  0.61668467E-07  0.10001580E-05  0.27962346E-07
 -0.55777764E-07  0.73846237E-06 -0.61893153E-07  0.14604500E-06  0.13868521E-06

  0.16280091E-06 -0.87207402E-06  0.11586738E-06 -0.16517590E-06 -0.47244386E-06
 -0.15249894E-06 -0.25594180E-06 -0.19910449E-06  0.92345594E-06 -0.52474645E-05
  0.90177147E-05 -0.29260159E-04  0.71164290E-05  0.82810798E-05 -0.13818517E-04
 -0.49209358E-05 -0.21316224E-04 -0.29496835E-04  0.63529712E-05 -0.18268627E-04
 -0.71411367E-04  0.32074760E-05  0.38262587E-05  0.25082706E-04 -0.77605878E-05
  0.50961649E-05 -0.68999444E-04  0.24450432E-04 -0.32578974E-04 -0.11522785E-04
 -0.15356905E-05  0.16274084E-04  0.16492805E-04 -0.60210646E-05 -0.30117167E-04
 -0.25854274E-04 -0.29561505E-07  0.33668431E-06  0.62708593E-07  0.34516541E-06
 -0.81879922E-06 -0.25222648E-06  0.22143809E-06 -0.30764008E-06  0.51619565E-06
  0.57631149E-05 -0.10846984E-04 -0.14674341E-04 -0.42484723E-05 -0.54860961E-05
 -0.30368114E-04  0.20862993E-04  0.15434701E-06 -0.82784710E-05 -0.37888030E-05
  0.15129774E-04  0.96830811E-05 -0.32745608E-04  0.26870223E-06  0.29382901E-04
 -0.80821990E-05  0.14875403E-04  0.31322886E-05 -0.39637135E-06 -0.68822520E-06
  0.10256758E-06  0.33247761E-07 -0.40581982E-07 -0.19453808E-06 -0.44881096E-06
 -0.33220362E-08 -0.49844552E-06 -0.20645783E-06  0.16344358E-06 -0.70190676E-06
  0.16825928E-06 -0.27998659E-06 -0.14128738E-06  0.25615267E-06 -0.18125469E-06
  0.26849241E-07 -0.21408444E-07 -0.11172053E-06 -0.58056084E-06 -0.89302374E-08
  0.66593555E-06 -0.43687756E-07 -0.17076864E-06 -0.34830603E-06  0.11652660E-06
  0.20700245E-04 -0.23496179E-04 -0.10314296E-04  0.12108538E-04 -0.12577561E-04
 -0.12794394E-04 -0.16679007E-05 -0.34400048E-05 -0.80341249E-05 -0.21859915E-06
 -0.47688624E-06  0.12223148E-07 -0.13729948E-06 -0.30545420E-06  0.23459803E-06
 -0.40460595E-07 -0.37726408E-06 -0.13396363E-06  0.15386890E-05  0.91794780E-05
 -0.10869875E-04 -0.73298916E-05 -0.29817677E-04  0.10592561E-04  0.20196802E-04
  0.15265137E-05  0.31367640E-04 -0.93566305E-06 -0.13187645E-05 -0.89406745E-06
  0.25486594E-05  0.18345409E-06 -0.33754239E-05  0.20179992E-05  0.88602452E-06
 -0.32351328E-05 -0.53399025E-04 -0.12417109E-04 -0.46240151E-04  0.58380834E-05
 -0.58205703E-04 -0.32765400E-04 -0.38475773E-04 -0.10393025E-04 -0.29276576E-04
 -0.68070653E-05 -0.16210509E-04  0.11419337E-04 -0.27420176E-04  0.35472242E-04
 -0.34236409E-05  0.39165378E-04  0.34886400E-04 -0.49551304E-05 -0.35438942E-04
  0.62759287E-05 -0.76719474E-04  0.23697370E-04 -0.13257167E-03 -0.31301282E-04
  0.95359708E-05  0.10495336E-03  0.42713426E-03  0.18372604E-07  0.91803942E-06
  0.76349807E-06 -0.14787707E-06  0.25184560E-06 -0.39202585E-06  0.95597844E-07
  0.20006241E-06  0.31206016E-06  0.49280447E-06  0.11056596E-06  0.69529813E-06
 -0.34422192E-06  0.73846008E-06  0.65421867E-06 -0.28601159E-06  0.21942964E-06
 -0.20916499E-06  0.13311388E-07  0.37644902E-06 -0.23901034E-06 -0.22222086E-06
  0.11239380E-06  0.23815590E-06  0.13013466E-06 -0.31076617E-06 -0.13547347E-06

 -0.20423956E-07 -0.47224224E-08  0.34614035E-07  0.49657036E-08  0.82546981E-08
  0.10935729E-07 -0.49077389E-09 -0.53593009E-08 -0.90648486E-08  0.50158795E-06
  0.38011708E-06 -0.17486827E-06  0.13820671E-05 -0.86355385E-08 -0.27335041E-06
  0.24112626E-06  0.61796771E-06  0.63300796E-06 -0.18228357E-06 -0.31925666E-06
 -0.15202590E-06  0.10895911E-05 -0.49249058E-06 -0.34289642E-06 -0.56845066E-06
 -0.12621751E-06  0.66649243E-06 -0.93007062E-06  0.16719444E-06  0.48896680E-07
 -0.27434273E-06  0.20224365E-06 -0.45882517E-06 -0.41205126E-06  0.24248920E-06
 -0.28947475E-06 -0.27572536E-07 -0.20794773E-07 -0.60263801E-08  0.68752448E-08
  0.41512179E-08  0.63256668E-08  0.19862883E-08  0.38359565E-08 -0.70482717E-08
 -0.38558774E-06 -0.11516301E-06  0.43253962E-06  0.25092381E-06  0.10523502E-05
  0.20102710E-06  0.71325531E-06 -0.47524635E-06 -0.11820613E-06 -0.50233828E-07
 -0.35314859E-06 -0.11567770E-06  0.31953604E-06  0.41687240E-06 -0.44873066E-06
  0.19324385E-06 -0.58660411E-06 -0.21974304E-06 -0.19547224E-07 -0.50194356E-08
  0.12003138E-07 -0.22680412E-07 -0.18343147E-07  0.33477682E-08  0.17246194E-07
 -0.60935676E-08  0.10807351E-07  0.32770245E-07 -0.37704957E-08  0.78758890E-08
  0.11499992E-07  0.19390952E-07  0.87301792E-08  0.30399300E-10 -0.16665409E-07
 -0.77098550E-09 -0.11786303E-07  0.34008149E-08  0.75521742E-08  0.97275787E-08
  0.83405228E-08  0.72196453E-08  0.25020947E-08 -0.23748345E-07 -0.22884499E-08
 -0.97325774E-07 -0.54432906E-06  0.51537678E-07  0.67789887E-07  0.14896914E-07
  0.38639369E-06 -0.12161887E-06  0.47735796E-07  0.24197364E-06  0.99231315E-08
  0.25436885E-07  0.10493881E-08  0.32670250E-07 -0.31965011E-07  0.18619867E-07
  0.65119342E-08  0.18231831E-07  0.83991679E-08 -0.31927865E-06 -0.30843021E-06
 -0.37653322E-06  0.49209926E-06  0.39327043E-06 -0.67223203E-06  0.35740668E-06
 -0.42113462E-06 -0.34156916E-06 -0.57302008E-07 -0.19923632E-07 -0.37820916E-08
  0.77181528E-08 -0.35220439E-08  0.21104890E-08 -0.20478676E-07  0.17649645E-07
  0.16076808E-07 -0.47235210E-06  0.11832011E-06  0.45869017E-08  0.16380643E-05
  0.37217758E-06 -0.14227782E-06  0.13954110E-06 -0.23179858E-06 -0.28516468E-06
 -0.12855658E-06  0.61591569E-06 -0.86608795E-07  0.63362747E-06  0.76803211E-06
 -0.49591817E-06  0.11058097E-05 -0.71554408E-06 -0.48003296E-06  0.66459575E-06
  0.56834772E-07  0.12222397E-06 -0.74316302E-06 -0.27627898E-06  0.10168351E-06
 -0.10642468E-05  0.47805774E-06  0.18372604E-07  0.64092022E-06  0.24291115E-07
  0.96826974E-08  0.13651138E-07 -0.41416629E-09  0.12167402E-07  0.56204819E-07
  0.16481092E-07  0.55061613E-08  0.42115818E-07 -0.24369554E-07  0.22393097E-07
 -0.53273355E-08  0.14637645E-07 -0.94349240E-08  0.12974609E-07  0.61482462E-08
 -0.39838228E-09 -0.28816109E-07  0.24368445E-07 -0.29205388E-08 -0.33669664E-07
  0.59033145E-09  0.50657523E-08 -0.22591867E-08 -0.47610646E-08  0.95269240E-08

 -0.14451341E-07 -0.10976293E-07  0.12201722E-08  0.63799375E-08  0.27006237E-07
 -0.11301337E-07 -0.83516282E-08  0.15959089E-07 -0.35005241E-07  0.34203377E-06
  0.10573461E-05  0.61861810E-06 -0.62054636E-06 -0.22871045E-05  0.40264911E-06
  0.35441966E-06 -0.15750837E-06 -0.17796676E-06  0.27803238E-06  0.90794197E-06
  0.23701223E-06 -0.10361101E-05  0.37043522E-05  0.92569771E-07  0.10884596E-05
  0.10802917E-05  0.15457900E-05  0.37532896E-06 -0.96984536E-06  0.10452581E-06
 -0.33847940E-06 -0.95979476E-06 -0.11403241E-06  0.83725984E-06  0.65779675E-06
 -0.21547074E-06  0.14962335E-07  0.28058928E-07  0.11734006E-07  0.20261235E-07
 -0.14633760E-07 -0.90075539E-08  0.11107209E-07  0.10819351E-07  0.29036087E-07
 -0.65933564E-08 -0.10008888E-05 -0.12472500E-06  0.10998519E-06 -0.83039285E-06
  0.10633665E-06 -0.10194405E-06  0.20409645E-06 -0.59774826E-06 -0.69323722E-06
 -0.68704959E-06  0.22785658E-06 -0.56992925E-06  0.45298048E-06 -0.24916740E-06
 -0.15375784E-06 -0.13522369E-07 -0.12261878E-05 -0.10136801E-07 -0.84506068E-07
 -0.13197285E-07  0.95732981E-08  0.23776537E-07 -0.16514619E-07 -0.50967968E-07
 -0.84116340E-08 -0.34753324E-08 -0.14377195E-09 -0.48095684E-08  0.18570874E-07
 -0.11175403E-07 -0.22070865E-07 -0.30743491E-08  0.19534301E-07  0.59454983E-08
 -0.20175966E-07  0.51074479E-08  0.86464040E-07  0.15170599E-08 -0.10455311E-07
  0.68122456E-07 -0.58544517E-08 -0.84345405E-09 -0.10853369E-07 -0.12368934E-07
  0.42624157E-06 -0.67528474E-06 -0.32541413E-06  0.22553897E-07 -0.18944451E-05
 -0.57849268E-07 -0.72322338E-06  0.40309587E-06 -0.44231040E-06 -0.12505947E-07
 -0.50858567E-07  0.20063778E-07  0.37613384E-07 -0.42071137E-07 -0.17867308E-07
 -0.34712692E-07 -0.10924411E-07  0.18282639E-07  0.62346890E-06  0.90669661E-07
 -0.29027829E-06 -0.50935947E-06  0.16198275E-06  0.19912794E-06 -0.37937824E-06
  0.15894645E-06 -0.68611540E-06 -0.10884109E-06 -0.91144461E-07 -0.25368025E-07
  0.55110630E-07  0.75541056E-07 -0.12255218E-07  0.13871636E-06 -0.16368499E-07
 -0.15622677E-07 -0.15727185E-06  0.83127618E-06 -0.57573237E-06 -0.40376290E-06
 -0.12068366E-05  0.10610295E-05 -0.72907296E-06 -0.14660064E-05  0.17456966E-06
  0.12289269E-05  0.31433752E-06  0.63729690E-06 -0.15004648E-06  0.18604374E-06
  0.24586823E-06 -0.91259572E-06 -0.90858329E-08 -0.30460190E-06  0.33793297E-06
  0.46157568E-06  0.23972976E-07 -0.44934909E-06 -0.72649113E-06 -0.52409140E-07
  0.18842892E-06 -0.56984335E-06  0.91803942E-06  0.24291115E-07  0.11355778E-05
 -0.56974218E-07 -0.35959319E-07 -0.33673625E-07 -0.80214173E-08 -0.85383308E-08
  0.39242432E-08  0.20844885E-07  0.14034921E-07  0.36723615E-07 -0.25009612E-08
 -0.94303306E-08 -0.88362161E-07 -0.21339386E-07 -0.71984333E-09 -0.71635330E-08
  0.43430140E-07  0.25615943E-07  0.13795008E-07 -0.11020621E-07 -0.43520073E-08
 -0.41807706E-07  0.73623927E-08 -0.10696701E-07 -0.24255138E-08  0.40498016E-07

 -0.24650359E-07 -0.21996671E-08  0.25956428E-07  0.25234012E-07 -0.46072391E-08
  0.14538266E-07 -0.11689074E-08 -0.14093269E-07  0.22337149E-07 -0.24372773E-06
 -0.48134849E-06  0.48995075E-06  0.25783329E-06  0.34996486E-07 -0.30443128E-06
 -0.68533086E-06 -0.99876376E-07  0.54179125E-06 -0.19717332E-06 -0.14699781E-06
 -0.27418218E-06  0.85948374E-06  0.82069636E-06 -0.97960562E-06  0.44407691E-06
 -0.12629965E-06  0.68763258E-06  0.92700287E-06 -0.36915435E-06 -0.17446297E-06
 -0.64915168E-06  0.50847820E-07  0.91832215E-06  0.22707271E-06 -0.87447870E-06
  0.86060480E-06 -0.23523481E-08 -0.49682652E-07  0.58774302E-07  0.13753002E-07
  0.14738816E-07 -0.23063970E-07  0.91343761E-08  0.73358911E-08 -0.58526419E-08
  0.18582337E-06 -0.20616890E-06  0.50873789E-06  0.29517786E-06  0.50979797E-07
 -0.60944762E-06  0.91209817E-07 -0.16426410E-06  0.13006919E-06 -0.83213396E-06
  0.10489087E-06 -0.14307390E-05 -0.13475270E-05  0.91874095E-07  0.16366928E-05
 -0.23752680E-06 -0.68578535E-06 -0.17375444E-08 -0.23611469E-09  0.13256459E-07
 -0.34850979E-07 -0.16816291E-09  0.19710986E-07 -0.12366811E-07 -0.48697224E-08
  0.13961920E-07  0.47004728E-08  0.70463537E-08 -0.81572067E-08 -0.61619514E-08
  0.18762540E-07 -0.16420890E-08 -0.31329897E-07 -0.26730421E-09 -0.22047339E-08
  0.17814960E-07  0.32783082E-07 -0.15335974E-07  0.11290437E-07  0.99095043E-08
  0.13595895E-07 -0.10606876E-08  0.82312578E-08  0.23155458E-07 -0.16418518E-07
 -0.22521455E-06  0.47666562E-07  0.43899361E-06 -0.40513506E-06  0.44238296E-06
 -0.42345355E-06 -0.33123862E-06  0.20194918E-06  0.60807778E-06 -0.22299785E-07
 -0.52270693E-08  0.11495652E-07  0.78809660E-08 -0.46805219E-08  0.20426564E-07
  0.10904293E-08 -0.10065568E-07 -0.65567968E-08 -0.10075366E-05  0.44622986E-07
  0.71158271E-06 -0.47349352E-06 -0.32252944E-06 -0.26389629E-06 -0.17993780E-06
 -0.12219532E-05 -0.25958353E-06 -0.66383057E-07 -0.44505978E-07 -0.49555437E-08
 -0.55651924E-08  0.51727729E-07  0.26651487E-07  0.39013157E-07 -0.53984339E-08
  0.10090932E-07 -0.10969490E-05  0.12800634E-06  0.58105480E-06 -0.45105157E-06
  0.70450342E-06  0.72254358E-06  0.13494062E-06  0.37686470E-06 -0.75122571E-06
  0.66522739E-06 -0.78515913E-06  0.97508579E-06  0.13737983E-06  0.12870023E-06
 -0.43093536E-06  0.35621035E-06  0.41319668E-06 -0.37179303E-06 -0.14302758E-05
 -0.50209127E-06  0.29754079E-06  0.28690800E-06 -0.47205704E-06  0.49156529E-06
 -0.66851077E-07  0.16370685E-05  0.76349807E-06  0.96826974E-08 -0.56974218E-07
  0.56539845E-06  0.46760406E-08 -0.98290344E-08  0.19318096E-07  0.39308852E-09
 -0.14679290E-07  0.25904181E-07 -0.75369701E-08  0.99046422E-08 -0.31434057E-07
 -0.10091150E-07  0.16636496E-07  0.82945456E-08 -0.14235097E-08 -0.22551846E-07
  0.14657374E-07  0.12922906E-07 -0.27134177E-07  0.38025359E-08  0.32182112E-08
  0.21512632E-07  0.30738562E-07  0.20903031E-08  0.65424045E-08 -0.11380285E-07

 -0.37815831E-08 -0.34716268E-07  0.14961813E-07 -0.53305328E-07  0.31842457E-07
  0.26844335E-07  0.37338228E-08  0.13090447E-07  0.29681667E-08  0.10759912E-06
 -0.14448291E-06 -0.17182294E-06 -0.90022222E-06  0.28204272E-06 -0.29731654E-06
 -0.13764850E-06  0.13045496E-05  0.22131387E-06 -0.16064051E-06 -0.39114401E-06
 -0.25709994E-06 -0.72896252E-06  0.25412189E-06 -0.10726021E-06 -0.59989082E-06
 -0.56975317E-06 -0.47961027E-06  0.14445659E-06 -0.24009315E-07  0.68455792E-06
  0.70040013E-06  0.26231229E-06 -0.63485329E-06  0.74905472E-07  0.98619827E-07
 -0.32062379E-06 -0.29770709E-07 -0.53435647E-08 -0.65085333E-08  0.11897752E-07
  0.11639581E-07  0.17412271E-07 -0.31264967E-08  0.50420978E-08  0.73989617E-08
 -0.24933896E-07  0.54916265E-07 -0.18158323E-06 -0.24767169E-06  0.38883649E-06
  0.51903844E-06 -0.18478631E-06 -0.28639904E-06 -0.12252712E-06 -0.13086982E-06
  0.15216134E-06 -0.12839851E-07  0.69997376E-06 -0.49202541E-06 -0.10507402E-06
  0.92011859E-08 -0.11126357E-06 -0.12463346E-07 -0.51328486E-08  0.17323373E-07
  0.33956472E-08 -0.26219854E-07  0.28527495E-07  0.17659419E-07  0.21454470E-08
 -0.11179496E-08  0.17437265E-08 -0.11504062E-07 -0.55366289E-08 -0.96437724E-08
  0.17746503E-08  0.17566587E-07  0.17306950E-07  0.89868795E-08  0.76066268E-09
 -0.22587687E-08  0.99655142E-09 -0.36872315E-08 -0.15012864E-08 -0.71709654E-08
  0.27923060E-07  0.84038338E-08  0.13466430E-07 -0.91178670E-09  0.17141478E-09
  0.69333294E-06  0.18471999E-06  0.37578176E-07 -0.12368959E-05  0.10643098E-06
  0.24665011E-06  0.17796200E-06  0.28420052E-06 -0.31715175E-07  0.40025422E-07
  0.29468532E-07  0.40246752E-08 -0.27466486E-07  0.19074669E-07  0.20725992E-07
  0.27086424E-07  0.15064891E-07  0.10485278E-07 -0.96413485E-07 -0.35419769E-06
  0.97735202E-07 -0.83638081E-06  0.88435866E-07  0.26995989E-06  0.26855110E-06
  0.25768406E-06  0.23220838E-06 -0.23709796E-07 -0.12511437E-07 -0.16622737E-07
  0.15585289E-07  0.17804095E-07  0.17618039E-07  0.24778884E-08  0.53169767E-08
  0.21137270E-07 -0.11982737E-05 -0.29165143E-06  0.11867081E-07 -0.37358106E-06
  0.68322489E-06  0.78126738E-07  0.18734955E-06 -0.20243266E-06  0.44063836E-06
  0.31382127E-06 -0.13193934E-06 -0.14424867E-06  0.58812871E-06  0.89132117E-07
  0.24056234E-06  0.38687391E-06 -0.10307302E-05  0.24451583E-07  0.79741838E-06
  0.23491454E-06  0.25879916E-06 -0.78917013E-06 -0.17018800E-06  0.22721210E-06
 -0.81530100E-07 -0.30099865E-06 -0.14787707E-06  0.13651138E-07 -0.35959319E-07
  0.46760406E-08  0.46185333E-06 -0.14479391E-06 -0.74374278E-07  0.23191003E-07
  0.72037181E-08  0.11642436E-07 -0.10013433E-07 -0.18862552E-07 -0.38139513E-08
  0.31316913E-08  0.13647076E-07  0.21348322E-07 -0.28389517E-07 -0.61239649E-08
 -0.57634632E-08 -0.49046198E-08  0.24381271E-07 -0.86456471E-08 -0.22782546E-08
  0.25986676E-07  0.16138533E-07  0.86514520E-09 -0.59875659E-09 -0.58520346E-08

 -0.39161907E-08  0.15987515E-07 -0.18418647E-07  0.18215025E-07 -0.70236170E-07
  0.31442339E-07  0.39587921E-08  0.50501575E-08 -0.12146484E-07 -0.27592771E-06
  0.53632784E-06 -0.14418159E-06  0.30843407E-06 -0.31515200E-06 -0.15151360E-06
  0.29197185E-06 -0.26958149E-06 -0.48129568E-06  0.77737264E-06  0.73465420E-06
 -0.32519921E-06  0.21900009E-06 -0.13400155E-05  0.67957977E-06  0.69664336E-07
  0.19277490E-06 -0.53744032E-06 -0.67232919E-07  0.11185630E-05 -0.13043020E-06
  0.21014716E-06 -0.85583403E-06 -0.23805143E-07  0.92945688E-06 -0.18984270E-06
  0.10204916E-05 -0.11772516E-07 -0.73964698E-08 -0.28767148E-08  0.33121263E-07
 -0.33620782E-07  0.10474417E-07 -0.35246172E-08 -0.13333649E-08 -0.71725161E-08
  0.15441413E-07  0.72589139E-06 -0.41338277E-07 -0.95393042E-07 -0.53643301E-06
  0.22664007E-06 -0.11438915E-06  0.17943311E-07  0.19926387E-06 -0.37140854E-06
 -0.73406593E-06 -0.39796104E-06 -0.76067777E-06  0.22410256E-05 -0.17756377E-06
 -0.46885939E-06 -0.13830440E-06  0.29148599E-06 -0.17680687E-07  0.45653145E-07
 -0.28513731E-08  0.45492959E-07 -0.68973699E-07  0.18771675E-07  0.39435098E-08
  0.77429744E-08  0.45043460E-08  0.13563319E-07  0.21794216E-07 -0.32395126E-08
  0.21819843E-07 -0.87227975E-08  0.22279350E-07 -0.95150408E-08 -0.85661836E-08
  0.34001502E-08 -0.24675501E-07 -0.16827460E-07  0.67305454E-08  0.21625370E-07
 -0.21233331E-07  0.17621855E-07 -0.55036484E-08 -0.14645305E-07 -0.99719786E-08
  0.12232997E-06  0.12045494E-05 -0.34921624E-06  0.49336863E-06 -0.12727153E-05
  0.15755663E-07  0.53256983E-07 -0.16918137E-06 -0.40528594E-06  0.41796618E-07
  0.11597000E-07  0.22930764E-08  0.19471076E-07 -0.28206826E-08  0.18465063E-07
  0.70888230E-08 -0.84537194E-08 -0.15942726E-07  0.40763673E-06 -0.82173741E-06
  0.19115230E-06 -0.58429306E-06  0.99969676E-06 -0.16784702E-06 -0.41269145E-06
 -0.45585578E-06  0.33634535E-06 -0.63054627E-07 -0.15943998E-07 -0.13838423E-07
  0.50099128E-07 -0.97458225E-07  0.19914524E-07 -0.20314395E-07 -0.66875945E-08
 -0.93385226E-08 -0.99603024E-06 -0.11687738E-05  0.34900156E-07 -0.47437539E-06
 -0.52667031E-06  0.11674224E-05 -0.10488785E-05 -0.74836833E-06 -0.31972363E-06
 -0.80096871E-07 -0.11865609E-06  0.14093831E-06 -0.69892610E-06 -0.10270104E-05
  0.68429480E-06 -0.39273833E-06 -0.24716248E-06  0.56380582E-07  0.23164885E-06
  0.14401166E-05 -0.23204207E-06  0.26817764E-07 -0.26537953E-07  0.45003444E-07
  0.40128894E-06  0.40608538E-06  0.25184560E-06 -0.41416629E-09 -0.33673625E-07
 -0.98290344E-08 -0.14479391E-06  0.10100812E-05 -0.12958405E-06  0.40276492E-07
  0.56752499E-08 -0.41495989E-07 -0.23267101E-07 -0.28370568E-07 -0.34006317E-08
  0.33883273E-08 -0.50560852E-07  0.43620593E-07  0.55850643E-08  0.17741326E-07
 -0.17544060E-07 -0.18794989E-07  0.12432871E-07 -0.11203103E-08  0.17864735E-07
 -0.40537347E-07  0.34417783E-07  0.29631851E-07  0.10679195E-07 -0.16263407E-08

  0.15376195E-07 -0.49389998E-08  0.98876284E-08  0.31865780E-07  0.27387328E-07
  0.11349952E-07 -0.94983256E-09  0.20124060E-08  0.22895091E-08  0.10357563E-06
 -0.50799111E-07  0.65974745E-07 -0.49786275E-06  0.30587476E-06  0.72397739E-06
 -0.25713590E-06  0.41086102E-06  0.26919818E-06 -0.76952675E-06 -0.78194479E-07
 -0.34706131E-06 -0.23780198E-06  0.45672118E-06 -0.14664618E-06 -0.22156150E-06
 -0.33828280E-06  0.14532297E-06 -0.13617968E-06 -0.17137405E-06  0.83978564E-06
  0.26994212E-06  0.46541527E-07  0.42798465E-06 -0.57676890E-07 -0.83811020E-07
  0.18351975E-06 -0.19423294E-07  0.63535263E-08  0.21262889E-08  0.20072784E-07
  0.13349775E-07 -0.88459351E-08  0.17895958E-08  0.64504620E-08 -0.20249760E-07
 -0.30180365E-06  0.30208378E-06  0.24174093E-06  0.14653587E-06 -0.13891313E-07
 -0.19797511E-06 -0.75724198E-07 -0.19247826E-06  0.35646019E-06  0.12952786E-06
 -0.36390134E-06 -0.28090209E-06 -0.84503603E-07  0.15833096E-06  0.87359560E-07
  0.85783773E-07 -0.87139421E-07 -0.62050669E-07 -0.85042425E-09  0.90445630E-08
 -0.12101445E-07  0.16845106E-07  0.19199288E-07  0.43633186E-08  0.21624342E-08
  0.74111660E-08 -0.75406865E-08 -0.31897575E-08  0.10655100E-07  0.10317272E-08
  0.23217049E-07  0.29005187E-07  0.78048950E-08  0.60532887E-08  0.33904644E-08
 -0.15306234E-08 -0.60381980E-09  0.73871437E-08  0.58872701E-08  0.17083817E-07
  0.15253995E-07  0.18680079E-07  0.66319730E-08  0.12138080E-07  0.15651743E-08
 -0.44638632E-06 -0.21070922E-06  0.22913028E-07  0.32533420E-06  0.36813818E-06
 -0.42197170E-06 -0.23897227E-07 -0.20457245E-06  0.23465807E-07 -0.13017887E-07
  0.38660610E-07  0.23157921E-08  0.30496794E-07  0.18570538E-07 -0.39251545E-07
 -0.17440546E-07  0.10012208E-07  0.78586441E-08 -0.21893901E-07 -0.22098878E-06
  0.57386910E-06 -0.19625831E-06  0.72679280E-07  0.14772780E-06 -0.27562876E-06
 -0.43712523E-07 -0.22554639E-06 -0.52813039E-07 -0.38423057E-07  0.19934873E-08
  0.58139814E-07  0.43063696E-07 -0.19954481E-07  0.32329517E-07  0.65426450E-08
  0.10749054E-08 -0.23479179E-06 -0.88154989E-07 -0.42892159E-06 -0.22617128E-06
  0.11093911E-05 -0.57165828E-06 -0.11492481E-06 -0.18011309E-06 -0.34342347E-06
  0.15884515E-06  0.45930661E-07  0.10973641E-05 -0.93290243E-07  0.37593675E-06
 -0.83507371E-06  0.20981672E-06 -0.38940074E-06  0.42363909E-07 -0.27437686E-06
 -0.23133311E-06 -0.17617817E-06 -0.24760461E-06  0.30986710E-06 -0.18431465E-06
 -0.67531370E-07 -0.28137762E-06 -0.39202585E-06  0.12167402E-07 -0.80214173E-08
  0.19318096E-07 -0.74374278E-07 -0.12958405E-06  0.32534544E-06  0.92975939E-09
  0.16673023E-07 -0.33886941E-07  0.25139439E-07  0.17986658E-08 -0.16850467E-07
  0.33837822E-07  0.50788999E-07 -0.25923793E-07  0.40830378E-09  0.88516977E-08
  0.34748234E-08  0.10007468E-08 -0.13952717E-07  0.22011107E-07  0.24268204E-07
  0.21782491E-07  0.13321062E-07  0.80864407E-08 -0.68764762E-08  0.11970348E-07

 -0.29495310E-07 -0.12424905E-07  0.64891882E-08  0.61931439E-08 -0.24944841E-09
  0.56734173E-08 -0.42370407E-08  0.34624960E-08  0.15870742E-08 -0.27610048E-07
 -0.13803650E-06 -0.34257774E-06  0.32151791E-06 -0.23945706E-06 -0.31817726E-07
 -0.75805730E-07  0.73200580E-07 -0.39996426E-07  0.42483513E-06 -0.92203023E-07
 -0.21432352E-06 -0.16965335E-06 -0.16967171E-06  0.13734666E-06 -0.93852014E-06
  0.26444519E-07 -0.13229320E-06 -0.47412330E-06  0.16616976E-06  0.18877317E-06
  0.13932856E-06 -0.83210897E-07 -0.11215718E-06 -0.63543166E-06 -0.12604749E-06
 -0.41810510E-06  0.57357580E-09 -0.39344983E-07  0.13215777E-07  0.89213235E-08
  0.27516887E-07 -0.51281123E-08 -0.20548065E-07  0.17723898E-08  0.19499236E-08
 -0.11698522E-06  0.26716244E-06  0.86958796E-07  0.63903963E-07  0.68870855E-06
 -0.15458256E-07  0.34136432E-07 -0.50425051E-07  0.19166711E-06  0.18487705E-06
  0.10729356E-06 -0.23492750E-07 -0.43548716E-06 -0.16077606E-06  0.19669235E-06
 -0.10233917E-07 -0.30166330E-07  0.18735626E-06  0.19738219E-07  0.11229650E-07
 -0.62819226E-08 -0.24207364E-07 -0.26956416E-07  0.10443039E-08 -0.76572449E-08
 -0.80673776E-08  0.61501458E-08  0.38808183E-08 -0.12376826E-07 -0.30376352E-09
 -0.41706635E-08  0.20752199E-07 -0.23075860E-08  0.16346244E-07 -0.49154099E-08
 -0.11729828E-08  0.17701480E-07  0.10352058E-07  0.10000336E-07 -0.82352282E-08
 -0.44581746E-08  0.54978586E-08 -0.13490079E-07 -0.91924942E-08 -0.16693326E-07
  0.66815389E-06 -0.20061518E-06 -0.16449362E-06  0.23582492E-06  0.26723152E-06
 -0.42636554E-07 -0.55915813E-06  0.13406258E-07  0.23308050E-07 -0.43906400E-07
  0.40987236E-07  0.13262026E-07 -0.35364903E-08 -0.12042047E-07  0.64029950E-08
  0.11201573E-07  0.98232440E-08  0.16391055E-07 -0.21680576E-06 -0.56327988E-06
 -0.17608895E-06 -0.16365631E-06  0.42754547E-06 -0.10243569E-07  0.27152843E-06
  0.10659590E-06  0.11998670E-06 -0.39634473E-08 -0.28674789E-07  0.47337671E-08
 -0.25456728E-07 -0.29644282E-08  0.26680676E-08 -0.54814007E-07 -0.35708963E-08
  0.64838842E-08 -0.60406415E-07 -0.17674395E-07  0.15857903E-06  0.19231699E-06
  0.13162596E-06 -0.15550128E-06  0.30111267E-06 -0.14481303E-06 -0.20218824E-06
 -0.17851693E-06  0.84462958E-07 -0.32535946E-07 -0.63642572E-06  0.94578580E-07
  0.37747485E-07  0.15460827E-05  0.52961902E-06  0.28343365E-06  0.19606239E-06
  0.21028057E-06 -0.99685212E-07 -0.33456116E-08 -0.39730578E-06 -0.10147526E-06
 -0.74918574E-06  0.84985890E-07  0.95597844E-07  0.56204819E-07 -0.85383308E-08
  0.39308852E-09  0.23191003E-07  0.40276492E-07  0.92975939E-09  0.39773877E-06
 -0.83688304E-08  0.20643230E-07  0.29838176E-07 -0.19448994E-07 -0.35030724E-09
  0.21113006E-08 -0.89450527E-08 -0.17629313E-08  0.15017243E-07 -0.27061470E-08
 -0.11913041E-08 -0.24326632E-08 -0.66625582E-09  0.75707834E-08 -0.20333026E-08
 -0.20701387E-07  0.48969604E-08  0.26097977E-07  0.26868352E-08  0.16993008E-07

 -0.17418181E-07 -0.80129688E-09  0.40523769E-08  0.10081516E-07 -0.82936671E-08
  0.26446393E-07 -0.37368884E-08 -0.37330948E-08 -0.88225386E-08 -0.15407627E-06
  0.24460131E-06  0.19464759E-07 -0.98700692E-07  0.35410981E-07  0.28994695E-07
 -0.40624174E-06  0.73978174E-07  0.13163049E-06 -0.75594272E-07  0.11908872E-07
 -0.33172221E-06 -0.33085333E-06 -0.20503374E-06  0.29611473E-06  0.36164768E-06
 -0.25548063E-06  0.77490225E-08 -0.19325044E-06  0.83768379E-08  0.31540284E-06
  0.38559610E-06 -0.43813187E-06  0.24503973E-06  0.70961297E-07 -0.45190124E-06
  0.20858511E-06 -0.21192520E-07  0.75330350E-08 -0.81577633E-08 -0.14441638E-07
  0.19241410E-08  0.55692863E-08  0.79887580E-08 -0.47184932E-08 -0.25065277E-08
  0.16383632E-06  0.11891624E-06 -0.20801674E-06 -0.41771940E-07 -0.17655222E-06
  0.15025239E-06 -0.45238628E-07 -0.19604422E-06 -0.20749306E-06 -0.36692373E-06
 -0.10117704E-06  0.12669185E-06  0.13622323E-06  0.81287207E-07 -0.23471738E-06
 -0.23069784E-06  0.14163479E-06  0.94451533E-07 -0.54232816E-08 -0.82864721E-08
 -0.15804008E-08 -0.80131778E-09 -0.37691383E-08 -0.20197047E-08 -0.23622676E-08
  0.21468091E-09  0.61927142E-08 -0.34296784E-08  0.94455747E-08 -0.13710627E-07
  0.65081836E-08 -0.54221751E-08  0.95818879E-08 -0.48908746E-09 -0.34750753E-08
 -0.81547830E-09 -0.88122967E-09 -0.28549137E-08  0.30547361E-08  0.61188756E-08
 -0.13924066E-08  0.89959054E-08 -0.16471424E-08 -0.17346108E-07 -0.72624302E-08
  0.81787321E-07  0.76313241E-07  0.18115864E-06  0.71663849E-08  0.12184023E-06
 -0.42319118E-07  0.11918629E-06  0.46442676E-07 -0.30770536E-06  0.12075148E-08
 -0.80549218E-08  0.20337752E-07  0.14399825E-07  0.67919419E-08 -0.10626146E-07
 -0.14002256E-07  0.60358621E-08  0.13765128E-07  0.20052482E-06 -0.21923540E-08
 -0.12211556E-07  0.92222898E-07 -0.28580972E-06  0.22330273E-06  0.10870736E-06
  0.14099387E-06  0.16580109E-06 -0.36502043E-07 -0.46249471E-07  0.20478163E-07
 -0.46204445E-08  0.40653290E-08 -0.21049208E-07  0.20850862E-08 -0.27497523E-07
 -0.12802297E-07 -0.14861254E-06 -0.30838142E-07 -0.93519824E-06 -0.21423486E-06
  0.30849199E-06 -0.23929856E-06  0.17673998E-06 -0.48066009E-06 -0.53181648E-06
  0.52186423E-06  0.32567522E-06  0.15953037E-06  0.11395139E-05 -0.54830531E-06
  0.51655455E-06  0.15140420E-06 -0.28085129E-07  0.40076493E-06  0.20969740E-06
 -0.29764767E-07 -0.14384950E-06  0.24095431E-06  0.17515471E-06 -0.15872332E-06
  0.33043978E-06  0.25959286E-06  0.20006241E-06  0.16481092E-07  0.39242432E-08
 -0.14679290E-07  0.72037181E-08  0.56752499E-08  0.16673023E-07 -0.83688304E-08
  0.23183879E-06  0.69451519E-08  0.19827012E-07 -0.83654785E-08  0.50003501E-08
 -0.90809462E-10 -0.11482329E-08 -0.82122414E-09  0.87733575E-08  0.34522787E-07
  0.10752909E-07 -0.79979451E-08 -0.92870649E-08  0.63708139E-08 -0.10033634E-07
  0.76274093E-08 -0.88735082E-09  0.60279988E-08 -0.63419451E-08  0.37407543E-08

 -0.17374425E-07 -0.29178160E-07 -0.53436839E-08  0.12258875E-07 -0.11627299E-07
  0.29111030E-08 -0.16872713E-07 -0.69194762E-08 -0.11619994E-07  0.47406776E-07
  0.16877336E-06  0.20909374E-07  0.26830321E-06 -0.69823534E-06 -0.20323790E-06
 -0.91794777E-07 -0.17469050E-06 -0.14894537E-06  0.35173991E-06  0.45097749E-07
 -0.21284327E-07 -0.25928637E-06 -0.43932780E-06  0.51095948E-06  0.23750974E-06
  0.22177875E-06 -0.31196476E-06 -0.26272530E-06  0.21398317E-06  0.16861359E-06
  0.37852869E-07 -0.34021051E-07 -0.11228169E-06  0.13735678E-06  0.30008888E-06
  0.26756241E-06 -0.93943395E-08  0.19077732E-07 -0.27751864E-07 -0.13486567E-07
  0.74424677E-08  0.30922943E-07  0.59504527E-08 -0.57208194E-08  0.74027857E-09
  0.11575955E-06  0.25804534E-06  0.23257071E-06  0.89303331E-07 -0.55349337E-06
 -0.47785666E-08  0.45746057E-06 -0.67420547E-07  0.67240739E-06 -0.13194406E-06
  0.29781134E-06 -0.50899445E-07 -0.17014840E-06  0.52498443E-06  0.38227856E-06
  0.61105864E-06  0.48105821E-06  0.11813666E-05  0.81787719E-08 -0.11449815E-07
  0.22338154E-07 -0.30689280E-08 -0.96980705E-08  0.14772745E-07  0.42293792E-08
 -0.52967102E-08 -0.14979000E-08  0.41595348E-08  0.17702226E-08  0.12929677E-07
  0.75723720E-08 -0.85708157E-08  0.46658836E-08 -0.11183079E-07 -0.93972928E-08
 -0.59422138E-08  0.11211941E-07 -0.13895900E-07  0.55785601E-08  0.19117883E-08
  0.12851509E-07 -0.62255786E-08 -0.61793239E-08  0.31700064E-08 -0.22808235E-07
  0.35451755E-07  0.10968114E-06 -0.22310389E-06  0.19315094E-06  0.13231950E-06
 -0.36674770E-06 -0.17148401E-06  0.29115993E-06  0.21229684E-06 -0.79352253E-08
  0.13936337E-07  0.33215881E-07 -0.83838555E-08  0.12084871E-07  0.18625144E-07
 -0.85881207E-08 -0.57581513E-08  0.99769770E-09 -0.16065222E-06 -0.64777113E-06
  0.14721148E-07 -0.29116054E-06  0.40948677E-07  0.23019607E-06 -0.30379857E-06
  0.18997314E-06  0.31141958E-08  0.97378156E-08  0.31047851E-07 -0.78775145E-08
 -0.63499976E-08  0.99760047E-09  0.11460178E-07  0.53626303E-08 -0.89412274E-08
  0.16578649E-07  0.43392732E-06  0.55502992E-07  0.26240664E-06  0.56529289E-06
  0.23627617E-06 -0.12506810E-07  0.26845462E-06 -0.67022252E-06 -0.27706436E-06
  0.55543071E-06  0.21400988E-06 -0.23012274E-06 -0.27333413E-06 -0.33881510E-06
 -0.35532194E-06 -0.68377338E-06  0.63633938E-07 -0.13543824E-06 -0.31090730E-06
 -0.38859071E-06  0.44329920E-07  0.53788594E-07  0.16841417E-06 -0.91449969E-08
  0.34148784E-06  0.14579645E-06  0.31206016E-06  0.55061613E-08  0.20844885E-07
  0.25904181E-07  0.11642436E-07 -0.41495989E-07 -0.33886941E-07  0.20643230E-07
  0.69451519E-08  0.34610954E-06 -0.46422389E-08  0.21349928E-07  0.10941311E-07
  0.20939969E-08 -0.10088659E-07  0.92321301E-09 -0.19493525E-07  0.49991578E-08
  0.79506765E-08  0.67890940E-08 -0.10637965E-07 -0.38316079E-08  0.48417948E-08
 -0.20174590E-07 -0.62372021E-09  0.11765382E-07 -0.24528325E-08  0.15747887E-07

 -0.21162537E-07  0.26284081E-07  0.72792248E-08  0.32084231E-07 -0.77438231E-08
 -0.15758685E-07  0.36816680E-08  0.16606842E-07 -0.30656296E-08 -0.71005778E-06
  0.33809490E-06  0.94732682E-08 -0.10454220E-05  0.12320420E-05 -0.61809113E-07
 -0.49199860E-06 -0.64548241E-07 -0.50600903E-06  0.81104014E-06 -0.58574183E-07
  0.42781981E-06  0.59604032E-06 -0.13017328E-06 -0.36312089E-08 -0.50166460E-06
 -0.29975101E-06  0.67499734E-06 -0.67509439E-06 -0.55156118E-06 -0.72118736E-06
  0.35262755E-07 -0.10230314E-06 -0.40539031E-06  0.17398737E-06 -0.91034249E-06
 -0.80437377E-06  0.10236585E-07 -0.47150398E-08  0.88992634E-08  0.11917422E-07
 -0.11845825E-07 -0.78659637E-08  0.27178733E-07 -0.11638641E-07 -0.39430358E-09
 -0.89460403E-07 -0.35552402E-06  0.56118172E-08  0.44691098E-07  0.26717136E-06
 -0.77664744E-07  0.81066727E-06  0.22633512E-06  0.40176004E-07  0.15165664E-05
 -0.51608229E-06 -0.26007741E-06  0.60331404E-06  0.17292099E-06 -0.11866861E-06
 -0.77091174E-06 -0.61325861E-06 -0.56505994E-06 -0.59731146E-07 -0.31079836E-07
 -0.35423018E-07  0.37073975E-08  0.27102634E-08 -0.17700273E-07  0.19229673E-07
  0.94811268E-08  0.38969572E-08 -0.29822294E-07 -0.13050998E-07  0.62260612E-08
 -0.33197606E-07  0.16920072E-07  0.44096587E-08  0.41228342E-08 -0.17034337E-07
 -0.10887833E-07  0.15937603E-07 -0.83089143E-08  0.96097250E-08 -0.48631572E-09
  0.12040465E-07 -0.29563279E-08 -0.42233294E-08 -0.54189472E-08 -0.34966075E-08
  0.20835666E-08 -0.26952211E-06  0.43434406E-06  0.19110815E-06 -0.39301675E-06
  0.22582243E-06 -0.92860817E-06 -0.20520030E-06  0.81389181E-07 -0.37737074E-07
  0.69128094E-09  0.13897652E-07 -0.16602656E-07 -0.34176815E-08 -0.53242217E-08
 -0.11509378E-07 -0.18848804E-07  0.50905398E-08 -0.24014758E-06 -0.62876685E-06
 -0.35223786E-07  0.93940577E-06  0.28517494E-06 -0.23616306E-06  0.11499850E-05
  0.20469376E-06 -0.18236570E-06  0.99893392E-09  0.35331134E-07 -0.14585370E-07
 -0.35971212E-07 -0.39027040E-07 -0.30800080E-08 -0.60522452E-07 -0.50120096E-08
  0.97789228E-08 -0.20903246E-06 -0.44678995E-06  0.23148896E-06 -0.12248615E-06
 -0.43222607E-08  0.10368503E-05  0.96476383E-06  0.37288710E-06 -0.21983552E-06
 -0.11043191E-05 -0.53200011E-07 -0.11522185E-05 -0.40842361E-05  0.85934533E-06
  0.10413201E-06  0.31361793E-06  0.37642089E-06 -0.61453548E-06  0.13106031E-05
  0.76549459E-06 -0.25321635E-06  0.20081667E-05 -0.87964710E-06 -0.47233698E-06
  0.10746755E-05 -0.23000142E-06  0.49280447E-06  0.42115818E-07  0.14034921E-07
 -0.75369701E-08 -0.10013433E-07 -0.23267101E-07  0.25139439E-07  0.29838176E-07
  0.19827012E-07 -0.46422389E-08  0.56342522E-06 -0.10470004E-06  0.67612245E-07
  0.90014462E-08 -0.51437335E-08 -0.12690579E-07  0.10485822E-07  0.87292239E-08
  0.68732354E-08 -0.39654871E-07 -0.19772827E-07  0.79931298E-08 -0.36281559E-08
 -0.22646152E-07 -0.47361979E-08 -0.43462761E-08  0.80562766E-08 -0.42897311E-08

  0.33390512E-08 -0.38306956E-07  0.14883958E-07  0.17101460E-07 -0.13422053E-07
 -0.47532852E-08  0.49520420E-08 -0.64391762E-08  0.27530184E-07  0.77634403E-06
 -0.83169914E-06 -0.18164253E-06  0.95381461E-07 -0.14026410E-05  0.19660251E-06
  0.46264394E-06  0.22639815E-06 -0.12146695E-05 -0.51306445E-06  0.18228317E-05
  0.22324664E-07  0.45515677E-07 -0.18034905E-05  0.80630238E-06  0.11315181E-05
  0.58453571E-06 -0.19498075E-05  0.62341819E-06 -0.35464240E-06 -0.24708018E-06
  0.28206450E-06 -0.91309258E-07  0.30453985E-06 -0.76677675E-06  0.36742268E-07
  0.42591456E-06  0.40734905E-08  0.32330029E-08  0.32252203E-08 -0.11499454E-07
  0.97612501E-08  0.10498165E-08  0.38018401E-07  0.11626633E-07 -0.27032838E-07
 -0.31261001E-07  0.64026669E-06  0.21695573E-06 -0.47448782E-07  0.23947059E-06
  0.93371356E-07 -0.47878804E-06  0.26732229E-07  0.11306541E-05 -0.23935799E-06
  0.14828513E-05  0.47157681E-06 -0.10293977E-06  0.16046723E-05  0.36321931E-06
  0.19366620E-05  0.10714897E-05  0.62679800E-06  0.16161448E-07  0.78658867E-07
  0.15908791E-07 -0.14630564E-07  0.41644895E-07  0.49552937E-08  0.11069848E-08
 -0.55542306E-08 -0.15716981E-07  0.26944141E-07  0.22016081E-07 -0.24349279E-07
  0.10998556E-07  0.15786886E-07 -0.13407835E-07  0.36784610E-08  0.98035866E-08
  0.11382140E-07  0.82759417E-09 -0.18824323E-07 -0.14231069E-07  0.55866486E-08
  0.40012591E-07 -0.46400088E-08  0.51188733E-08  0.13124063E-07 -0.32153937E-07
  0.37856401E-06  0.10285536E-05  0.16703608E-06 -0.29088840E-06  0.64271908E-06
 -0.33025700E-06 -0.39020917E-06 -0.18140934E-06  0.48980100E-06 -0.60241868E-07
  0.38995304E-07  0.20949348E-07  0.46457848E-08 -0.16152874E-07  0.56883309E-08
 -0.44465125E-08 -0.22610774E-07 -0.15228903E-07 -0.82412787E-06 -0.46834242E-06
 -0.28756662E-08  0.11086982E-06  0.72343429E-06 -0.15788801E-06  0.45401258E-06
 -0.31063083E-06  0.71310550E-06 -0.27865704E-07 -0.47720757E-07  0.31992973E-07
  0.12398438E-07  0.62195644E-07  0.10155459E-07  0.78481607E-07 -0.51604408E-07
 -0.42541873E-07  0.43672701E-06 -0.43369392E-06  0.36865869E-06  0.11415135E-05
  0.20984954E-05 -0.63504453E-06  0.12992814E-05 -0.57910359E-06 -0.18794363E-06
 -0.73168202E-06 -0.11665811E-05 -0.35179595E-06  0.10136814E-05 -0.63505711E-06
  0.52878535E-06  0.31320985E-06  0.10324757E-05  0.21098945E-05 -0.91431607E-06
 -0.70317028E-06  0.43467513E-07 -0.45625126E-06  0.50577814E-06  0.12848287E-06
 -0.67244828E-06  0.29098375E-06  0.11056596E-06 -0.24369554E-07  0.36723615E-07
  0.99046422E-08 -0.18862552E-07 -0.28370568E-07  0.17986658E-08 -0.19448994E-07
 -0.83654785E-08  0.21349928E-07 -0.10470004E-06  0.81676082E-06 -0.63009099E-07
 -0.18634270E-07 -0.32088100E-07  0.13584322E-07  0.16837277E-07  0.23145589E-08
 -0.11490838E-07  0.40649711E-08 -0.10292878E-08  0.55765231E-08  0.10671241E-07
  0.12685567E-07 -0.74353386E-08 -0.44850329E-08  0.63880304E-08  0.18376023E-07

 -0.15200558E-08 -0.22003967E-07 -0.10837142E-07 -0.96961237E-08  0.15210405E-07
 -0.26068869E-08 -0.67086869E-09  0.87309347E-09 -0.10062892E-07 -0.35117706E-06
  0.31909374E-06  0.12230553E-05 -0.20523762E-06  0.28278393E-06 -0.52770277E-06
  0.34477126E-06  0.26101271E-07 -0.20954504E-06  0.16612099E-06 -0.47771118E-06
 -0.51943973E-07  0.54789274E-06  0.85414604E-07 -0.12047797E-05 -0.19261333E-06
  0.39556221E-07 -0.17030305E-06  0.24734414E-06  0.54674616E-08 -0.60548600E-06
  0.11787626E-06  0.27666431E-06 -0.12890562E-05 -0.19235559E-07  0.66684991E-06
  0.30716491E-06  0.29634122E-07  0.11341139E-08 -0.17429485E-07  0.91186692E-08
  0.11187501E-07 -0.10098660E-07 -0.10225598E-07  0.37980215E-08  0.94202239E-08
 -0.42787789E-06 -0.88664467E-06  0.61674375E-06  0.34806746E-06  0.74071604E-06
 -0.37268690E-06 -0.32912813E-06  0.69649033E-06 -0.12399442E-06  0.24230588E-06
 -0.61143638E-06 -0.11627163E-06  0.37359805E-06 -0.48898170E-06 -0.30560477E-06
 -0.13158558E-06 -0.14372585E-06 -0.93494096E-06  0.13012053E-07 -0.16756787E-07
  0.10449942E-07  0.11319292E-07 -0.11142868E-07 -0.12080632E-07  0.67844768E-08
  0.11908292E-08 -0.43769842E-08 -0.16436630E-07 -0.18018963E-07  0.13347529E-07
 -0.41105312E-08 -0.16324743E-08  0.41197861E-08 -0.20111101E-07  0.82098171E-08
  0.15881528E-07 -0.16270365E-07 -0.11511649E-07  0.26633560E-08 -0.73272669E-08
  0.88862063E-08  0.19591730E-07  0.10284870E-08 -0.15982090E-07 -0.80318903E-08
 -0.16230113E-06  0.82408035E-07  0.24749831E-06  0.27661188E-06 -0.30384800E-06
  0.82410293E-06 -0.42113087E-06 -0.43482769E-06  0.15545902E-06 -0.70050672E-08
  0.46510266E-08  0.93779532E-08  0.15265675E-08 -0.11530439E-07  0.15865260E-07
 -0.26454282E-08 -0.11997119E-07  0.12228317E-07  0.14370540E-06 -0.33263243E-06
  0.38734051E-07  0.47640580E-06 -0.11416558E-06 -0.32997819E-06  0.11507055E-06
  0.76543134E-06  0.22071112E-06  0.22297010E-07 -0.29336534E-08 -0.11222222E-07
 -0.16986650E-07 -0.25141050E-07 -0.63049200E-08 -0.13604070E-07  0.12682887E-08
 -0.11032559E-07  0.65608234E-06  0.23678917E-06  0.67858496E-06  0.16181798E-06
  0.26230435E-06  0.22447288E-06  0.30451987E-06  0.18447483E-06  0.59064290E-06
  0.29292231E-06 -0.21046955E-06 -0.20073926E-05 -0.11123111E-07  0.19508851E-06
  0.25934997E-06 -0.33578355E-06  0.14023193E-06 -0.59504790E-07  0.56332243E-06
 -0.48978306E-06  0.52690622E-06 -0.16301502E-05 -0.18182317E-06  0.17698868E-06
  0.22011529E-06 -0.32313107E-06  0.69529813E-06  0.22393097E-07 -0.25009612E-08
 -0.31434057E-07 -0.38139513E-08 -0.34006317E-08 -0.16850467E-07 -0.35030724E-09
  0.50003501E-08  0.10941311E-07  0.67612245E-07 -0.63009099E-07  0.36784188E-06
 -0.34795063E-08 -0.15220262E-07  0.71034121E-08  0.10572808E-07  0.19538109E-08
  0.72460808E-08 -0.17555714E-08 -0.36615969E-07  0.26833432E-08 -0.11765359E-07
  0.47173333E-08 -0.28621871E-08 -0.10851688E-07 -0.23556319E-08  0.11985045E-07

 -0.65576715E-08 -0.69368851E-08  0.27926768E-08  0.12744547E-07  0.23591197E-07
  0.27709319E-07  0.22152838E-07  0.26336900E-08  0.95590308E-09 -0.24116616E-06
  0.14112524E-06 -0.33656024E-06 -0.47328105E-06  0.35550589E-06  0.27374376E-06
 -0.12235850E-06  0.98492914E-07  0.15975371E-07 -0.47096022E-07 -0.10462993E-06
 -0.18055651E-06  0.12129255E-05 -0.68143819E-06  0.37569055E-06 -0.27632282E-06
 -0.15500463E-06 -0.32145891E-06 -0.10461016E-05 -0.51531668E-07  0.21040719E-06
  0.95862390E-06  0.26182819E-07 -0.25673103E-07  0.33139595E-06 -0.18560093E-06
  0.64871930E-06 -0.81527920E-08  0.47008014E-08  0.83308372E-08 -0.23682069E-07
  0.40596795E-07  0.22229097E-07  0.52701306E-08  0.11446228E-08 -0.12401457E-07
  0.44406284E-06  0.48139707E-07  0.20441105E-06 -0.40193157E-08 -0.15174455E-06
  0.49075615E-07  0.63885611E-06  0.14844902E-06  0.98474563E-07 -0.18515696E-06
  0.21540768E-06 -0.13827832E-06 -0.19484816E-06  0.15214665E-06  0.25280156E-07
 -0.27977061E-06  0.48974216E-06  0.14138423E-06  0.26320685E-07  0.11513258E-07
  0.19346545E-07 -0.27213115E-07  0.43552935E-07  0.27001625E-07  0.71305388E-08
  0.47714345E-08 -0.26566421E-08  0.11894218E-07  0.79337128E-08 -0.14528427E-07
  0.36146280E-07  0.12046723E-07  0.39026462E-07  0.18024061E-07 -0.87500703E-08
 -0.12123132E-08  0.26448386E-08 -0.64613362E-08 -0.13573781E-07  0.57682412E-08
  0.37232844E-07  0.12581287E-07 -0.14528172E-07 -0.18053813E-07 -0.21470083E-08
  0.37972961E-06  0.18179673E-06 -0.44612644E-06  0.51737820E-06 -0.25861167E-06
  0.35089207E-07  0.31558822E-06 -0.48380341E-06  0.14947478E-06  0.36967629E-07
  0.26908504E-07  0.16740445E-07 -0.20214223E-07  0.44139254E-07  0.86992273E-08
  0.16787234E-07 -0.53265219E-08  0.21950783E-09  0.45433117E-06 -0.38532759E-06
  0.27694610E-06 -0.98246795E-06  0.40225569E-06  0.32032812E-07 -0.27513839E-06
 -0.35339772E-06  0.33811560E-07 -0.16060494E-07 -0.19698539E-07  0.92214715E-09
 -0.20155108E-09  0.50030773E-07  0.40130934E-08  0.25230605E-07  0.19260884E-07
  0.14920596E-09 -0.55914568E-06  0.22404877E-07  0.32734958E-06 -0.85984204E-06
  0.75801427E-06  0.10319151E-06  0.92635345E-07 -0.36420994E-06  0.34753792E-06
 -0.48562750E-06 -0.30274976E-06  0.17818599E-06  0.89639712E-06 -0.12410838E-06
 -0.91317507E-07 -0.29272355E-06 -0.25791383E-07 -0.18848126E-06  0.84743388E-06
 -0.62300276E-07  0.56307690E-06  0.73343778E-06 -0.10140200E-06  0.14754007E-06
  0.48533623E-06  0.79790359E-07 -0.34422192E-06 -0.53273355E-08 -0.94303306E-08
 -0.10091150E-07  0.31316913E-08  0.33883273E-08  0.33837822E-07  0.21113006E-08
 -0.90809462E-10  0.20939969E-08  0.90014462E-08 -0.18634270E-07 -0.34795063E-08
  0.51426189E-06 -0.11639027E-06 -0.57395056E-07 -0.90630438E-07  0.42710582E-07
 -0.63091608E-08 -0.13062566E-08  0.18668670E-07  0.90839624E-08  0.53911397E-07
  0.21390813E-07  0.18370861E-07 -0.79201274E-08  0.54564320E-08  0.67340666E-08

  0.51946133E-07 -0.23064840E-07  0.34113042E-08  0.54604448E-07  0.52076173E-07
 -0.48153821E-08  0.23203784E-07  0.11287709E-07 -0.26978917E-08  0.95177395E-06
 -0.30663673E-06  0.28264387E-07 -0.80637742E-06 -0.25048627E-07  0.55403843E-06
 -0.96848806E-06  0.19157186E-07 -0.57243450E-06 -0.15723626E-06 -0.30211141E-06
 -0.11490708E-06 -0.13342380E-06 -0.15015841E-05 -0.47606673E-07 -0.50819984E-06
 -0.20415604E-06 -0.16760706E-07  0.17770813E-06  0.13685975E-07 -0.17874544E-06
  0.27723199E-06  0.65478765E-06 -0.60946270E-06 -0.66441001E-07 -0.54944167E-06
 -0.92310683E-06 -0.39203015E-07 -0.42190684E-07  0.15715703E-07  0.44145556E-07
 -0.34804295E-07  0.22521586E-07 -0.19494620E-07  0.66311435E-08  0.18880144E-09
 -0.28816286E-06  0.13890199E-06  0.47247452E-07 -0.13316322E-06 -0.51305875E-06
  0.42258306E-06 -0.81952658E-07 -0.39155973E-06 -0.12297486E-06  0.66650044E-06
 -0.70611067E-06  0.70213935E-07 -0.23368867E-06 -0.11549945E-05  0.62517907E-06
 -0.37070327E-06  0.11710419E-08  0.38903087E-06 -0.18228614E-07  0.66008976E-08
  0.44195428E-08  0.37123202E-07 -0.37362628E-07  0.36124377E-07  0.54731320E-08
  0.95506934E-08  0.30152211E-08 -0.13205820E-07  0.41380070E-08  0.59385741E-09
  0.25732605E-07  0.53170362E-07  0.18746327E-07  0.13017915E-07  0.41234385E-08
 -0.19113401E-08 -0.28189277E-07 -0.39689638E-07  0.11129623E-07  0.47493068E-07
 -0.32298382E-07  0.28225421E-07  0.22803845E-07  0.72395656E-08  0.60551401E-08
 -0.25625140E-06 -0.11916338E-05  0.19756530E-06 -0.21945924E-08  0.11493124E-05
 -0.31477031E-06 -0.26111450E-06 -0.86528361E-07  0.44115396E-06  0.31606009E-07
 -0.87189686E-08  0.30296656E-08  0.52418007E-07 -0.47504595E-07  0.16615409E-07
 -0.60155136E-09  0.21963216E-07 -0.21785812E-08  0.64265637E-06  0.55678827E-06
  0.30959149E-06 -0.47244419E-06 -0.46144151E-06  0.62960079E-06 -0.52464203E-06
 -0.97835801E-07 -0.73856680E-07 -0.25113752E-07  0.98858546E-07 -0.41643868E-08
  0.43724419E-07  0.25924952E-07  0.27152060E-07  0.42156904E-07 -0.13272768E-07
  0.30137387E-08 -0.48089266E-06 -0.91555484E-07 -0.58932816E-06  0.10703596E-06
 -0.21678627E-06 -0.10898147E-05 -0.64473027E-06  0.14173472E-06  0.46238785E-06
  0.43050112E-07 -0.58875353E-06 -0.50488804E-06  0.13900310E-07 -0.62956965E-06
  0.57861959E-07 -0.78436835E-06 -0.59526107E-07  0.13000164E-05 -0.11240813E-06
  0.40727095E-06 -0.16674528E-06 -0.87233573E-06  0.69493268E-06  0.46012780E-08
  0.89140022E-06  0.10859650E-06  0.73846008E-06  0.14637645E-07 -0.88362161E-07
  0.16636496E-07  0.13647076E-07 -0.50560852E-07  0.50788999E-07 -0.89450527E-08
 -0.11482329E-08 -0.10088659E-07 -0.51437335E-08 -0.32088100E-07 -0.15220262E-07
 -0.11639027E-06  0.84069949E-06 -0.73380338E-07 -0.13066069E-06  0.21865107E-08
 -0.64053551E-07 -0.43784375E-08 -0.34650778E-07  0.32243408E-08  0.36505769E-07
  0.13400360E-07  0.34663195E-07  0.15024812E-07  0.49985223E-08 -0.54719337E-08

  0.15630573E-07 -0.11587633E-07 -0.42753446E-08  0.14125530E-07  0.11182761E-07
  0.12493987E-07  0.13470136E-07  0.92929559E-08  0.92802607E-08  0.26576342E-06
 -0.32068933E-07  0.50046080E-06 -0.20241216E-06 -0.18589756E-06  0.47256188E-06
 -0.27219778E-06  0.74386462E-07 -0.31194059E-07  0.13709898E-06  0.24277980E-06
 -0.29841747E-06  0.68159488E-06  0.14551465E-07 -0.70381714E-06  0.30685384E-06
  0.56584958E-06 -0.64795599E-06  0.52605012E-06  0.18533502E-06 -0.32845347E-06
  0.10582735E-06  0.25725920E-07 -0.33629477E-06 -0.33864117E-06  0.22369860E-06
 -0.20436449E-06 -0.25398490E-09  0.14019323E-07 -0.26458174E-09  0.25712442E-07
  0.71740867E-08  0.13993066E-07  0.91176546E-08 -0.99420118E-09  0.15472692E-07
 -0.17497711E-06 -0.31328445E-07  0.14711264E-06 -0.50888591E-07  0.24181584E-06
 -0.16974968E-06  0.24921370E-06 -0.93873444E-07 -0.46690990E-06 -0.18854360E-06
 -0.42929973E-07  0.20362727E-07 -0.10501057E-06  0.12218901E-06 -0.50142166E-06
  0.19511174E-06 -0.38388350E-08 -0.13075904E-06  0.12852923E-07 -0.92971377E-09
  0.26478050E-08  0.30550811E-07  0.16184117E-07  0.49557797E-09  0.20551252E-08
 -0.53861569E-08  0.30383389E-09 -0.48276276E-08  0.14887747E-07 -0.14468271E-07
  0.33398410E-07  0.99661389E-08 -0.25844870E-08 -0.42927450E-08  0.39491554E-08
 -0.70639380E-08  0.26056232E-10 -0.51081126E-08 -0.15811567E-08  0.88710750E-08
  0.24231719E-07  0.23328469E-07 -0.13452611E-08  0.61353214E-08 -0.63764807E-08
 -0.39923673E-06  0.12271500E-06  0.62251842E-07  0.30229755E-06  0.37080261E-07
 -0.32011526E-06  0.18213841E-06 -0.39765790E-06 -0.10610327E-06  0.53257889E-08
 -0.22241304E-07 -0.15025073E-07  0.63100572E-08  0.18566644E-07  0.20928650E-07
 -0.38076434E-08 -0.38754252E-08 -0.47649337E-08  0.56699458E-07  0.11826134E-06
 -0.39197129E-07  0.94791585E-07  0.32599102E-06 -0.12613535E-06 -0.18421019E-06
  0.95039248E-07  0.22607291E-06  0.11014475E-07 -0.32695692E-08  0.73865293E-08
  0.25505953E-07 -0.78692436E-09  0.39251527E-07  0.64103569E-08 -0.20831263E-07
 -0.97472513E-08 -0.47732247E-07 -0.38131419E-06 -0.58402952E-07  0.45090834E-06
  0.64214943E-07 -0.28114743E-06  0.76727998E-07 -0.47666122E-06 -0.45347962E-06
 -0.57380046E-06 -0.20212544E-06  0.13679995E-08  0.28743615E-07  0.30214848E-06
  0.21716484E-06  0.28699401E-06 -0.76782600E-07  0.58190962E-06 -0.27371875E-06
 -0.85685130E-07 -0.36424868E-06  0.62149215E-06  0.12729043E-06 -0.49012466E-07
  0.43622519E-06  0.85310065E-06  0.65421867E-06 -0.94349240E-08 -0.21339386E-07
  0.82945456E-08  0.21348322E-07  0.43620593E-07 -0.25923793E-07 -0.17629313E-08
 -0.82122414E-09  0.92321301E-09 -0.12690579E-07  0.13584322E-07  0.71034121E-08
 -0.57395056E-07 -0.73380338E-07  0.25137012E-06  0.14893657E-07  0.35195975E-07
 -0.33309443E-07 -0.74206766E-08 -0.93160048E-08 -0.30514421E-08  0.18901495E-07
  0.24060253E-07  0.17640024E-07 -0.52167056E-08  0.14152647E-07 -0.55026955E-08

 -0.51242073E-08  0.27014144E-07 -0.59870841E-08 -0.15826192E-07 -0.54431137E-08
 -0.68576188E-09  0.32311242E-07 -0.11287395E-07  0.51514421E-08  0.30244640E-06
 -0.10151569E-05  0.26169714E-06  0.15276231E-06  0.10722343E-05 -0.19614289E-06
 -0.23921236E-06 -0.24669724E-06  0.36938575E-06  0.26415506E-06 -0.39391522E-06
 -0.23141317E-06 -0.37279058E-06 -0.32700368E-06 -0.25157713E-06  0.91914757E-06
  0.54112106E-06 -0.48435147E-06  0.28664333E-06 -0.10954569E-06 -0.28902606E-06
  0.53556031E-06 -0.20980149E-06  0.51295475E-07  0.99126257E-07  0.29419683E-06
 -0.41984448E-06  0.25939689E-07 -0.35647157E-07  0.14898094E-09 -0.58422616E-08
  0.58583967E-08 -0.76905480E-08  0.31370848E-07 -0.17792067E-07 -0.23606325E-08
  0.58855905E-07  0.47372450E-06 -0.23541379E-06  0.16650772E-06  0.18036845E-05
 -0.36140258E-06 -0.95086048E-06  0.10946396E-06  0.20117381E-06 -0.35750051E-06
  0.19179616E-06 -0.12531380E-06 -0.53727637E-06  0.31550848E-06 -0.15224136E-06
 -0.20459581E-06  0.69716630E-07  0.90427192E-07  0.38497623E-07  0.39452046E-08
 -0.58659248E-08  0.79937861E-08 -0.51984400E-07 -0.21398447E-08 -0.93648837E-08
 -0.63056702E-08 -0.21377116E-08 -0.10052252E-07 -0.17981213E-07 -0.31587925E-08
 -0.13309324E-07 -0.19174683E-07 -0.43228773E-08  0.22112439E-07  0.12079946E-07
  0.23261929E-08  0.21384591E-07 -0.11897228E-07  0.21693046E-08 -0.97586236E-08
 -0.18017689E-08 -0.25726433E-08 -0.73455062E-08  0.56574053E-08  0.27843793E-09
  0.25092188E-06  0.17674328E-06 -0.12138932E-06 -0.70206467E-07 -0.46683056E-07
  0.26846350E-06 -0.40694640E-06  0.10497102E-06 -0.38700664E-06 -0.39325190E-07
 -0.25909623E-07  0.29439923E-08  0.36996418E-07  0.68272024E-08 -0.36513134E-08
  0.40619035E-07 -0.16923623E-07  0.87834855E-08 -0.13119955E-07  0.13448173E-06
 -0.13306936E-06  0.10800153E-05  0.79732957E-07 -0.25354990E-06 -0.26642625E-06
  0.28969002E-06 -0.47506644E-07 -0.30602643E-07 -0.43237126E-07  0.39447943E-08
 -0.28297704E-07 -0.62598857E-08 -0.32914374E-08 -0.37496748E-07  0.17868851E-07
  0.11256591E-07 -0.20821088E-06  0.30833674E-06  0.34618141E-06 -0.48927393E-06
  0.25144247E-06  0.10736801E-05 -0.15598345E-07 -0.23813881E-06 -0.69030926E-06
 -0.14035609E-05  0.36060407E-06 -0.33991890E-06  0.21002394E-06  0.18169185E-06
  0.20421527E-06  0.21614394E-06  0.59479793E-06 -0.30440196E-06 -0.63450237E-06
  0.69758815E-07 -0.32443302E-06 -0.87747239E-06 -0.30717784E-06  0.38340732E-06
 -0.14210249E-05  0.46862934E-06 -0.28601159E-06  0.12974609E-07 -0.71984333E-09
 -0.14235097E-08 -0.28389517E-07  0.55850643E-08  0.40830378E-09  0.15017243E-07
  0.87733575E-08 -0.19493525E-07  0.10485822E-07  0.16837277E-07  0.10572808E-07
 -0.90630438E-07 -0.13066069E-06  0.14893657E-07  0.48497782E-06 -0.25001226E-07
  0.43065094E-07  0.76848661E-08 -0.35138852E-07 -0.66873491E-08 -0.28590661E-07
 -0.10366838E-07  0.30215147E-08  0.91696663E-09 -0.44721574E-08  0.21589235E-09

  0.23883919E-08 -0.21188476E-08  0.86873960E-08 -0.10428805E-07  0.93885917E-08
  0.10376364E-08 -0.17194089E-08 -0.63640604E-08 -0.12462474E-08 -0.32009340E-06
  0.39387785E-07  0.39080935E-06  0.18451887E-06 -0.44340431E-06  0.53480936E-06
 -0.95326523E-07 -0.28483423E-06 -0.72038591E-07 -0.68662158E-06  0.21195481E-06
 -0.38073976E-06  0.10378108E-05 -0.19306387E-06 -0.56838435E-06  0.34162723E-06
 -0.59090630E-06 -0.26047211E-06  0.13750203E-06 -0.86019911E-07 -0.20455409E-06
  0.18151003E-08 -0.14640167E-06 -0.64891435E-07 -0.40249072E-06 -0.48683517E-06
 -0.17308001E-07 -0.27661875E-07  0.21018390E-07 -0.55498257E-08  0.74310156E-09
  0.13639767E-07 -0.30698607E-08  0.10737958E-07 -0.19017290E-07 -0.76446469E-08
 -0.15068262E-06  0.17564607E-06  0.89453602E-07 -0.24786312E-06 -0.21393778E-06
 -0.58367921E-07  0.61719948E-06 -0.45640792E-07 -0.26273624E-06 -0.44815180E-06
  0.62213820E-07  0.19006145E-07  0.53742089E-06  0.10183901E-06 -0.90660599E-07
  0.23876456E-06  0.47663692E-06  0.53997227E-07 -0.12275577E-07  0.30646681E-08
  0.96999658E-08  0.68452312E-08  0.55138961E-08 -0.87742354E-09 -0.72461755E-08
  0.62250902E-08 -0.66798339E-08  0.27425580E-07  0.19811532E-07 -0.14698353E-07
  0.14586730E-07  0.10517022E-08  0.60830659E-08  0.30359371E-08 -0.14638831E-07
 -0.93612723E-08 -0.70008946E-08  0.85262772E-08  0.11930697E-07  0.18946234E-07
 -0.20787646E-08  0.55914365E-08  0.10718386E-08  0.64199060E-09 -0.96010395E-10
 -0.32633045E-06 -0.60775579E-07  0.23372172E-06  0.12253323E-06  0.21494217E-06
 -0.27903317E-06  0.20307358E-06 -0.31098581E-06 -0.37229278E-06  0.75753141E-08
 -0.12136389E-07  0.15353955E-08  0.99514237E-09  0.55858551E-08  0.23598583E-08
 -0.18644298E-07  0.17680784E-07 -0.29381641E-08 -0.16055690E-06 -0.15345147E-06
  0.99650911E-07  0.56998556E-06 -0.29047221E-07 -0.31713783E-07 -0.66926418E-07
 -0.47451147E-06  0.15422663E-06  0.20672271E-07  0.22104728E-07 -0.30686562E-08
 -0.19785894E-08 -0.28524049E-08 -0.33216334E-08 -0.17431698E-07  0.13192711E-07
  0.92086405E-08 -0.23493490E-06  0.44092323E-08  0.24025017E-06  0.53173273E-06
 -0.28344361E-06 -0.53112118E-06 -0.98614803E-07  0.61352637E-06  0.23990852E-06
  0.36609021E-06  0.21694084E-06 -0.59944808E-07 -0.96206404E-06  0.83270580E-07
 -0.35547579E-07  0.43869778E-07  0.86203867E-06  0.37914226E-06 -0.36556974E-06
  0.23524873E-07 -0.25755745E-06  0.96478560E-06  0.39728204E-07  0.27371165E-07
  0.37695487E-06  0.11345483E-05  0.21942964E-06  0.61482462E-08 -0.71635330E-08
 -0.22551846E-07 -0.61239649E-08  0.17741326E-07  0.88516977E-08 -0.27061470E-08
  0.34522787E-07  0.49991578E-08  0.87292239E-08  0.23145589E-08  0.19538109E-08
  0.42710582E-07  0.21865107E-08  0.35195975E-07 -0.25001226E-07  0.23587360E-06
 -0.48101408E-07  0.20321942E-07  0.13035292E-07  0.20919787E-08  0.75094395E-08
 -0.11646969E-07  0.14460203E-07  0.45636065E-08 -0.18292549E-08 -0.47875538E-08

 -0.17617465E-07  0.17432483E-07  0.14733052E-07  0.14600933E-07 -0.16735814E-08
 -0.16869540E-07 -0.16153348E-07 -0.19880313E-08 -0.49541218E-08 -0.49828096E-06
  0.37370427E-06  0.58270850E-06  0.83591370E-07 -0.26971066E-06 -0.14564133E-06
 -0.35900406E-06 -0.27879704E-06  0.79364157E-06  0.89346116E-07  0.31420464E-06
  0.60516481E-06 -0.60516978E-06  0.55742327E-06  0.21053646E-06 -0.11268595E-06
  0.11218004E-06  0.74882772E-06 -0.70362167E-06 -0.10665796E-05  0.24776331E-06
 -0.42143707E-06 -0.40563674E-07  0.44869696E-06  0.43640660E-06  0.24818685E-06
  0.70056058E-07 -0.86231223E-08 -0.31845388E-07  0.89895701E-08 -0.11015245E-07
  0.23240694E-07 -0.98811344E-10 -0.87863068E-08  0.28081807E-08  0.11325766E-07
  0.59368187E-07 -0.32252919E-06 -0.33243518E-07  0.26790976E-07 -0.11976434E-06
 -0.30499739E-06  0.91646261E-07  0.11378840E-06  0.25584823E-06 -0.14478891E-06
 -0.21426706E-06 -0.40389436E-06 -0.32659847E-07 -0.50844205E-06  0.33693009E-06
 -0.39826369E-06 -0.67800736E-07 -0.17247997E-06  0.85049076E-08 -0.24480937E-07
  0.33872060E-08  0.49589233E-09 -0.19183086E-07 -0.66856281E-08  0.15806290E-07
 -0.38202807E-09  0.15026114E-07 -0.14466403E-07 -0.21797952E-07  0.19390007E-07
 -0.35291083E-08  0.78545023E-08 -0.59575811E-08  0.81973397E-09 -0.48974482E-08
  0.27437192E-08  0.51688262E-08  0.10320325E-07  0.34963601E-08 -0.56292019E-08
 -0.92632170E-08 -0.86271541E-08  0.14549050E-07 -0.14529661E-09  0.77815821E-08
 -0.26565156E-06  0.59675947E-07 -0.96350204E-07 -0.26663514E-06  0.25489910E-06
  0.24516169E-06  0.37850961E-07  0.17660198E-06 -0.16509312E-07 -0.15949259E-07
 -0.27993077E-07  0.14575975E-07 -0.46139090E-09 -0.90491820E-08  0.35198934E-08
 -0.15681169E-08 -0.11682379E-07  0.12468024E-07 -0.26236770E-06 -0.12199834E-06
  0.14336779E-06  0.15895260E-06 -0.76502028E-06 -0.15984769E-06  0.41998645E-07
  0.26584169E-06 -0.36272138E-06  0.99408166E-08  0.89166367E-08  0.13416997E-07
  0.13387422E-07  0.50880607E-08  0.55586915E-08  0.23241719E-07 -0.10593091E-07
 -0.19116138E-08  0.41140682E-06 -0.44864041E-06  0.30886015E-06 -0.38677014E-06
 -0.73143731E-06  0.10200129E-05 -0.54105574E-07 -0.53252109E-06 -0.81244306E-06
 -0.24042684E-06  0.34792247E-06  0.43934991E-06  0.40912477E-06  0.31522555E-06
 -0.54401623E-06  0.10442687E-05  0.77671727E-07 -0.48704278E-06  0.29773085E-06
  0.35578025E-06 -0.66321417E-07 -0.12063690E-06  0.66713780E-06 -0.15798709E-06
  0.11989030E-05 -0.12322153E-05 -0.20916499E-06 -0.39838228E-09  0.43430140E-07
  0.14657374E-07 -0.57634632E-08 -0.17544060E-07  0.34748234E-08 -0.11913041E-08
  0.10752909E-07  0.79506765E-08  0.68732354E-08 -0.11490838E-07  0.72460808E-08
 -0.63091608E-08 -0.64053551E-07 -0.33309443E-07  0.43065094E-07 -0.48101408E-07
  0.32552975E-06 -0.84994933E-09 -0.25844006E-07 -0.22754131E-07 -0.11816220E-07
 -0.20399457E-07 -0.14890575E-07  0.10610601E-08 -0.50423735E-08  0.54347131E-08

 -0.20404364E-07  0.32563937E-08 -0.21699991E-07 -0.53856983E-08  0.11169839E-07
 -0.14978889E-08 -0.85123910E-08  0.74280845E-08 -0.62595370E-08  0.64893438E-06
 -0.77513581E-06  0.70041971E-07  0.32788219E-06 -0.16377338E-06 -0.42587759E-06
  0.36019545E-06  0.59654773E-06  0.52606790E-06  0.42193622E-06 -0.19810173E-07
 -0.17641373E-06  0.17130641E-06  0.70031472E-06 -0.27195315E-06  0.24314961E-06
  0.66417194E-06  0.29312743E-06  0.75795149E-06 -0.18963181E-06 -0.57854575E-06
 -0.13196259E-05  0.31128748E-06  0.99347603E-06 -0.13597525E-05  0.76614439E-06
  0.35374219E-06  0.36937652E-07  0.23772895E-07 -0.17321859E-08  0.48981639E-08
  0.80252286E-08 -0.25258048E-07  0.25208270E-08  0.10658964E-07  0.63542827E-08
 -0.89528442E-07 -0.59702426E-06  0.14245690E-06 -0.87251755E-06 -0.37851843E-06
  0.21526631E-06 -0.19038145E-07  0.58411147E-06  0.13752090E-06 -0.55135224E-06
  0.35974598E-06  0.33740987E-06 -0.30256821E-06 -0.21792587E-06  0.57459718E-06
  0.12127959E-05  0.66855344E-06  0.28635957E-07 -0.83627172E-08  0.12537585E-07
  0.60039822E-08  0.22498242E-07 -0.51996005E-08 -0.79807030E-08  0.29534884E-08
  0.66620324E-08 -0.31087827E-08 -0.17897742E-07 -0.20268389E-07  0.12044337E-07
  0.96119001E-08 -0.22033461E-07 -0.15954160E-08 -0.11359942E-07 -0.79471689E-08
 -0.65501838E-08  0.52633751E-07  0.72756996E-08  0.62349680E-08 -0.13259650E-07
 -0.16087882E-07  0.13540805E-09  0.66385458E-08 -0.37350745E-08  0.11822475E-07
 -0.13372869E-06  0.12674823E-06  0.78193529E-07  0.23997261E-06  0.82319618E-06
 -0.25291966E-06 -0.42634487E-07 -0.70089742E-07 -0.69102409E-07 -0.49602842E-07
  0.54505097E-08 -0.16300813E-07 -0.17827116E-07  0.12598071E-07 -0.28921558E-08
 -0.22556751E-07 -0.84370257E-08 -0.40105568E-08  0.45509782E-07  0.11574190E-06
 -0.21317198E-07  0.15761466E-05 -0.81493316E-06 -0.17600333E-06  0.31247731E-06
 -0.11264968E-05  0.11650664E-07  0.72402049E-07  0.29662145E-07 -0.21457795E-07
 -0.10989066E-06  0.43148751E-07  0.62645380E-08 -0.18502981E-07  0.10625986E-07
  0.22780650E-07  0.87757856E-06  0.13910842E-05  0.35078959E-06  0.96514689E-06
 -0.68687663E-06  0.31344984E-06  0.66525331E-06  0.23369092E-06  0.88002208E-06
 -0.65701024E-06 -0.51647959E-06 -0.84218112E-07 -0.12622006E-05 -0.37259052E-07
 -0.73534096E-06  0.10239158E-06  0.76841575E-06 -0.11526657E-06 -0.11284354E-05
 -0.18659145E-06 -0.11302633E-06  0.58549244E-06  0.39834337E-06 -0.39061527E-06
  0.56381978E-06 -0.14956475E-06  0.13311388E-07 -0.28816109E-07  0.25615943E-07
  0.12922906E-07 -0.49046198E-08 -0.18794989E-07  0.10007468E-08 -0.24326632E-08
 -0.79979451E-08  0.67890940E-08 -0.39654871E-07  0.40649711E-08 -0.17555714E-08
 -0.13062566E-08 -0.43784375E-08 -0.74206766E-08  0.76848661E-08  0.20321942E-07
 -0.84994933E-09  0.49632455E-06 -0.49177122E-07  0.18060057E-07 -0.10835082E-07
 -0.18474179E-07  0.47094600E-08  0.67451832E-08 -0.73186011E-09  0.12857043E-08

 -0.30522514E-07  0.20660486E-07 -0.80936989E-08 -0.50328215E-08 -0.23813026E-07
 -0.20703715E-08 -0.35007531E-07  0.93968833E-09  0.17029612E-07 -0.81016303E-06
  0.19859105E-07  0.65210088E-06  0.52995615E-06 -0.38091653E-06 -0.85530846E-07
 -0.11612864E-07  0.12093418E-06 -0.27572845E-06  0.43702010E-06  0.27777126E-07
 -0.57485144E-06  0.73882817E-06 -0.40579305E-06  0.90739037E-07  0.12407326E-06
 -0.44190622E-06  0.13344982E-05  0.62552888E-06  0.91578474E-06 -0.31746129E-07
 -0.14794226E-06 -0.98345281E-06  0.17470498E-07 -0.60241293E-06 -0.91339549E-07
 -0.11233161E-05  0.19222038E-07  0.16965910E-07 -0.10937524E-07 -0.28291490E-07
  0.13600204E-07  0.80022311E-08  0.89755689E-08  0.77136296E-08 -0.74764357E-09
  0.56850137E-07 -0.11630997E-05 -0.19447160E-06  0.21695423E-06 -0.65446575E-06
  0.16392950E-06  0.56951464E-06  0.33877904E-06  0.24003727E-06  0.52907795E-06
  0.88423224E-06  0.81176939E-06  0.33084751E-06  0.28905306E-06 -0.50973180E-06
  0.28301131E-07 -0.40507892E-06 -0.11706954E-06  0.46951755E-07  0.49472422E-07
 -0.23094126E-07  0.54373830E-08  0.38850412E-07 -0.57167768E-08 -0.18475029E-08
 -0.76495184E-08  0.84509593E-08  0.23308683E-07 -0.12229385E-07 -0.18510895E-07
 -0.27368581E-08 -0.35532394E-07  0.14896699E-07  0.56966048E-08  0.25940763E-08
 -0.27715906E-07  0.23323265E-08  0.20298259E-07 -0.20399854E-07 -0.41400189E-08
 -0.30071347E-07 -0.62800268E-08  0.10305564E-08 -0.91026506E-08  0.55844174E-08
  0.29907085E-06  0.15704075E-06  0.15233259E-06  0.14801239E-06 -0.19750728E-05
  0.19564341E-07 -0.16199203E-06  0.37037963E-06 -0.33282483E-06  0.32907115E-07
 -0.37144326E-07 -0.18605484E-07 -0.83517456E-08  0.37267066E-07 -0.14236387E-07
 -0.19128599E-07  0.17168380E-07  0.56153367E-08 -0.24873817E-06 -0.31047779E-06
 -0.38650728E-08  0.29353463E-07  0.87950852E-06  0.27906148E-06 -0.20963888E-06
 -0.11004572E-07  0.15128180E-06  0.37815998E-09  0.39996889E-07  0.22325584E-07
  0.17718021E-07  0.57225057E-07  0.13253248E-07  0.25635808E-07  0.98023840E-08
 -0.20229105E-07 -0.13421578E-06  0.88253071E-06  0.18494730E-07 -0.35089450E-06
 -0.15801142E-05  0.80757432E-06 -0.64150907E-06  0.71572786E-07  0.26391370E-06
  0.21007138E-05  0.20224580E-05 -0.76042062E-06 -0.26711962E-05 -0.16292285E-05
  0.12387347E-05 -0.31583137E-06 -0.12012981E-05  0.82853654E-06  0.88832152E-06
 -0.13305558E-06 -0.72657034E-06  0.11596941E-05 -0.11788227E-05  0.14834428E-07
  0.44474169E-06  0.61668467E-07  0.37644902E-06  0.24368445E-07  0.13795008E-07
 -0.27134177E-07  0.24381271E-07  0.12432871E-07 -0.13952717E-07 -0.66625582E-09
 -0.92870649E-08 -0.10637965E-07 -0.19772827E-07 -0.10292878E-08 -0.36615969E-07
  0.18668670E-07 -0.34650778E-07 -0.93160048E-08 -0.35138852E-07  0.13035292E-07
 -0.25844006E-07 -0.49177122E-07  0.75843955E-06 -0.71915534E-07 -0.94341417E-08
  0.22776613E-07  0.12442494E-08 -0.53929852E-08  0.65061542E-08 -0.29596072E-07

  0.20354244E-09 -0.55366949E-08 -0.10276480E-07  0.78143108E-08 -0.72736410E-08
  0.15737128E-07  0.29868767E-08  0.14777915E-07  0.10300498E-07  0.23960549E-06
 -0.17956750E-06 -0.89429097E-06  0.32127358E-07 -0.10353264E-06 -0.17658386E-06
  0.28320252E-06  0.49077915E-07  0.20383268E-06 -0.13563335E-07 -0.80241783E-07
 -0.44886821E-06  0.60406051E-06 -0.50271203E-06 -0.23521729E-06  0.68601409E-07
  0.77136683E-06  0.71475210E-06 -0.73437383E-07  0.45550858E-06 -0.26899621E-07
 -0.10761745E-06 -0.19686537E-07  0.13569692E-05  0.20711920E-06  0.32078699E-06
  0.34439925E-06  0.46759746E-10  0.23917345E-07 -0.15668529E-07  0.67891202E-08
 -0.74922133E-08 -0.17726191E-08  0.28137018E-08  0.77933590E-08 -0.21768000E-07
  0.11050556E-06  0.93485906E-06  0.14635137E-06 -0.41104702E-06  0.88010793E-07
  0.93768967E-06 -0.29133093E-06  0.33517013E-06 -0.52981656E-06 -0.25557546E-07
 -0.11424733E-06 -0.66302797E-06 -0.26052406E-07  0.85811308E-07 -0.59109877E-06
  0.94616989E-07 -0.93324900E-07  0.30176800E-06 -0.22859462E-08  0.40873248E-07
 -0.16212360E-07  0.11309519E-08  0.50536121E-08 -0.24803461E-07  0.89598142E-08
  0.32556840E-08 -0.12196856E-07 -0.14046339E-07 -0.13289568E-07  0.33173362E-08
 -0.90043601E-08  0.19406758E-08 -0.82509000E-08  0.78127719E-08 -0.81135682E-09
  0.11840644E-08 -0.10560337E-07 -0.48864268E-08  0.24115250E-07  0.34547791E-08
 -0.21644053E-08  0.14853684E-07 -0.16040474E-07 -0.10596464E-07 -0.71710419E-08
  0.43455075E-06 -0.95880669E-07 -0.96697459E-06 -0.37848861E-06  0.58245358E-06
 -0.36970103E-06 -0.39327942E-06 -0.81692207E-07  0.32042854E-06  0.10406737E-07
  0.36442538E-07 -0.71104988E-08 -0.18098922E-07  0.73978060E-08  0.75784052E-08
 -0.98350197E-08 -0.63870852E-09 -0.12601810E-07  0.41860135E-06 -0.19872788E-06
 -0.96411997E-07 -0.68674834E-06  0.12278266E-05 -0.89341586E-06  0.41857100E-06
 -0.25462738E-06 -0.20573784E-06 -0.73005509E-08 -0.31436297E-07 -0.26676338E-07
  0.48593999E-07  0.40668653E-07 -0.35974379E-07  0.37982652E-07 -0.82220534E-08
  0.10648046E-07 -0.12475076E-05 -0.43133383E-06 -0.30255344E-06 -0.58265872E-06
  0.11819790E-05  0.79715577E-06 -0.19234691E-06  0.53593159E-06  0.78150042E-06
 -0.69717505E-06 -0.49217034E-06  0.85130726E-06 -0.45993357E-06 -0.23470042E-07
 -0.48338553E-06 -0.24974396E-06 -0.81406823E-06 -0.95020357E-06 -0.52826937E-06
 -0.54198631E-06  0.20941485E-06 -0.99697981E-06  0.51976121E-06 -0.51594406E-06
 -0.93603969E-06  0.10001580E-05 -0.23901034E-06 -0.29205388E-08 -0.11020621E-07
  0.38025359E-08 -0.86456471E-08 -0.11203103E-08  0.22011107E-07  0.75707834E-08
  0.63708139E-08 -0.38316079E-08  0.79931298E-08  0.55765231E-08  0.26833432E-08
  0.90839624E-08  0.32243408E-08 -0.30514421E-08 -0.66873491E-08  0.20919787E-08
 -0.22754131E-07  0.18060057E-07 -0.71915534E-07  0.32490094E-06  0.14566334E-07
  0.24153515E-07  0.40699076E-08 -0.58161113E-08  0.58422183E-08 -0.72886670E-08

  0.24381112E-07 -0.88150469E-08 -0.58876153E-08 -0.31861966E-07  0.39081995E-07
  0.22655681E-07  0.16388601E-07  0.16609932E-07 -0.22240812E-08  0.31195509E-06
 -0.27179993E-07  0.46651240E-07 -0.12807777E-05  0.35365826E-06  0.73382983E-06
 -0.43042801E-06 -0.17870411E-06  0.10999967E-06  0.11249224E-06  0.95182194E-07
  0.11013081E-06  0.31746258E-06 -0.61112508E-06  0.26217208E-06  0.32335309E-06
  0.22792534E-06 -0.50422676E-06  0.13545950E-07 -0.69203931E-07 -0.27420759E-06
  0.63149955E-06  0.38593633E-06 -0.14233105E-06 -0.13509973E-07 -0.13983519E-06
  0.79585485E-07 -0.23592589E-07 -0.21164038E-08  0.21690558E-08  0.55778854E-07
  0.90684589E-08  0.29133332E-07  0.93910660E-08  0.10767608E-08 -0.22887539E-08
 -0.42955077E-06  0.38747680E-07  0.24518578E-06 -0.68187771E-06 -0.18954313E-06
  0.14069782E-06  0.43843667E-06 -0.16455961E-06  0.17469675E-06  0.50404441E-06
 -0.20509904E-06  0.88510430E-08  0.53264925E-06  0.13956316E-06 -0.18515042E-06
  0.54468328E-06  0.66690250E-06  0.33306308E-08 -0.38721684E-08 -0.10483160E-07
  0.97805929E-08 -0.12331412E-09  0.33930287E-07  0.24461960E-07  0.13289266E-07
  0.50491000E-09 -0.42707275E-08  0.22955692E-07  0.21941895E-07 -0.52531638E-08
  0.30393387E-07  0.19468851E-07  0.30069509E-07  0.14620007E-07 -0.11852060E-07
  0.51524192E-08  0.12908640E-07  0.44141810E-08 -0.39970463E-08  0.14361362E-07
  0.31517941E-07  0.21037705E-07 -0.23305210E-08 -0.11156425E-07 -0.12348149E-07
 -0.70307346E-06 -0.84951468E-07 -0.92688935E-07 -0.92985138E-07  0.50199724E-06
 -0.43338558E-08 -0.17499930E-07 -0.20293225E-06 -0.21411709E-06 -0.41258654E-08
  0.15810022E-07  0.24659077E-08 -0.46992786E-07  0.30088241E-07  0.28084948E-07
  0.90224176E-09  0.16767535E-07  0.65538195E-08  0.16627361E-06 -0.41550897E-06
 -0.31911199E-06 -0.16141408E-05  0.69336232E-06 -0.68681754E-11  0.15923313E-06
 -0.62448933E-06  0.23975003E-06  0.58497626E-07  0.80079134E-08  0.45030611E-08
 -0.42609810E-07  0.76617369E-07  0.10904260E-07  0.16633173E-07 -0.20886047E-07
  0.44536693E-08 -0.57202214E-07  0.26041919E-06  0.15201765E-06 -0.56271034E-06
  0.12241181E-05 -0.10370034E-06  0.40242192E-06 -0.61774531E-06  0.19549572E-07
 -0.45093204E-06  0.47586359E-07 -0.39587056E-06 -0.13134086E-05  0.27402692E-06
 -0.12195016E-06 -0.81948397E-06  0.12936166E-06  0.32786649E-06 -0.20719377E-06
 -0.35961233E-07  0.11842262E-06  0.18176291E-06  0.39611368E-06 -0.82674667E-07
 -0.10863132E-06  0.27962346E-07 -0.22222086E-06 -0.33669664E-07 -0.43520073E-08
  0.32182112E-08 -0.22782546E-08  0.17864735E-07  0.24268204E-07 -0.20333026E-08
 -0.10033634E-07  0.48417948E-08 -0.36281559E-08  0.10671241E-07 -0.11765359E-07
  0.53911397E-07  0.36505769E-07  0.18901495E-07 -0.28590661E-07  0.75094395E-08
 -0.11816220E-07 -0.10835082E-07 -0.94341417E-08  0.14566334E-07  0.42843059E-06
 -0.10462698E-06 -0.45759498E-07 -0.27931787E-07  0.74883998E-08  0.16128318E-07

  0.36017548E-07  0.20560556E-07  0.79021774E-08  0.42977541E-07 -0.29513384E-07
  0.35367160E-07  0.13197667E-07 -0.41380826E-08  0.27604280E-07  0.42936174E-06
 -0.25413051E-06 -0.18041427E-07 -0.47602499E-06  0.83307030E-06  0.75450862E-07
  0.28614057E-06  0.16962574E-06 -0.75311118E-06 -0.49670936E-06 -0.14454220E-05
  0.13544225E-06 -0.31936287E-06  0.45945309E-06 -0.18677751E-06 -0.55925765E-07
  0.26031753E-06 -0.13336707E-05  0.32981306E-06 -0.83887524E-07  0.37666204E-06
  0.66095780E-06 -0.77166753E-06 -0.45379867E-06  0.68956323E-06  0.36997946E-06
 -0.30317463E-07  0.47996144E-08 -0.54332084E-07 -0.21729251E-08  0.21367340E-07
  0.55918092E-08  0.38599728E-07 -0.18004110E-07 -0.35427984E-08 -0.96756597E-08
 -0.22548885E-06 -0.51919819E-06 -0.20198605E-06  0.72839023E-07  0.17037521E-05
 -0.21799783E-06 -0.14016397E-05  0.22335857E-06  0.77602679E-06  0.30216066E-06
  0.38566451E-06  0.75075293E-08 -0.15787806E-06  0.55672872E-06  0.17273652E-06
  0.10165082E-05 -0.16763013E-06  0.76264992E-06  0.32971450E-08  0.31663524E-07
 -0.23613678E-08  0.35303955E-07 -0.61890415E-08  0.70807150E-08  0.26702942E-07
  0.11056019E-07 -0.62401684E-08 -0.95468510E-08 -0.38841593E-07  0.14818672E-07
  0.19305535E-07 -0.23624271E-07  0.22962332E-07 -0.13528724E-07  0.14466525E-07
 -0.13878404E-07 -0.15488956E-07 -0.86405859E-07 -0.21986530E-07  0.28830058E-07
  0.83858414E-08  0.36252917E-07  0.94609917E-09  0.15130669E-07  0.56118800E-09
 -0.18194314E-06  0.42510657E-06 -0.60144000E-06  0.51160602E-06 -0.97771360E-06
 -0.93537816E-07 -0.71482767E-06 -0.29092424E-06  0.98228435E-06  0.12170021E-07
 -0.36700602E-07 -0.15147224E-07  0.25546393E-08 -0.58330078E-07  0.42956492E-07
 -0.44305782E-08 -0.20903772E-08 -0.10386832E-07 -0.37335029E-06  0.24222575E-06
  0.41602404E-06  0.64275463E-06 -0.43126150E-07  0.61055652E-07  0.62067677E-06
  0.37608409E-06  0.37122541E-06 -0.22410587E-07 -0.93895512E-07  0.20352914E-08
  0.10595744E-06  0.30406168E-07  0.14056753E-07  0.69769733E-07  0.21585418E-08
 -0.42548379E-07 -0.45441419E-06  0.15269211E-05  0.74974737E-06  0.30801970E-06
 -0.45986705E-06  0.32036545E-06 -0.67795217E-06 -0.18063825E-07  0.83638568E-06
 -0.36629835E-06 -0.70256284E-06 -0.75206758E-06  0.62614995E-07 -0.49527702E-06
  0.33104448E-06 -0.19653391E-05 -0.13360849E-05 -0.60765794E-06 -0.10474502E-06
  0.41666975E-06  0.11374092E-06 -0.11909009E-05 -0.15703096E-06  0.76461857E-06
 -0.13012764E-05 -0.55777764E-07  0.11239380E-06  0.59033145E-09 -0.41807706E-07
  0.21512632E-07  0.25986676E-07 -0.40537347E-07  0.21782491E-07 -0.20701387E-07
  0.76274093E-08 -0.20174590E-07 -0.22646152E-07  0.12685567E-07  0.47173333E-08
  0.21390813E-07  0.13400360E-07  0.24060253E-07 -0.10366838E-07 -0.11646969E-07
 -0.20399457E-07 -0.18474179E-07  0.22776613E-07  0.24153515E-07 -0.10462698E-06
  0.90070373E-06 -0.81496222E-07 -0.85164292E-07  0.13023337E-07 -0.79191186E-07

  0.14822266E-09 -0.14924709E-07  0.73551679E-08  0.18986370E-07  0.31723741E-07
 -0.76520978E-08  0.18698805E-08 -0.32848908E-08  0.21374012E-07 -0.15781044E-06
  0.29115784E-06 -0.20933435E-06  0.82196479E-07 -0.33287439E-07 -0.20095879E-06
 -0.15774772E-06 -0.14199565E-06 -0.15826195E-06  0.14954911E-06 -0.90308511E-07
 -0.72187443E-06  0.46858747E-06  0.12151573E-06 -0.52316731E-06 -0.15861876E-06
  0.28920598E-06 -0.13587191E-06  0.14046394E-06  0.27012748E-06  0.30493802E-06
  0.12370865E-06 -0.88142990E-07  0.68114054E-07 -0.83045846E-07 -0.22713316E-06
  0.21550197E-06 -0.88754185E-08  0.16830899E-07  0.56163516E-08  0.38033702E-07
  0.38784489E-07 -0.30351602E-07  0.17944582E-07 -0.46747202E-08 -0.90119960E-08
  0.44905045E-07  0.23506843E-06  0.32384704E-06 -0.24610390E-06  0.20333285E-06
  0.41477119E-06 -0.91389392E-07 -0.25273253E-06  0.10536289E-06 -0.76793753E-06
 -0.56372615E-06 -0.69480006E-06 -0.30832433E-06 -0.68710416E-07  0.38847662E-06
  0.25364651E-06  0.50830900E-07  0.11755483E-07  0.90401756E-08  0.33524198E-08
 -0.17185024E-07  0.29676491E-07  0.10872315E-07  0.57849708E-08 -0.35654641E-08
  0.83363593E-08 -0.84280208E-08  0.58449076E-08 -0.89990823E-09 -0.31702257E-07
  0.30615493E-07  0.28662332E-07  0.16222016E-07  0.15592826E-08 -0.81909806E-08
 -0.12751749E-07 -0.10685358E-07  0.10099428E-07  0.84116443E-08  0.19376940E-07
  0.32465469E-07  0.84373280E-09 -0.22165631E-09  0.18429394E-08  0.25243773E-08
  0.84384551E-07  0.36692640E-07  0.36461868E-07  0.76120923E-07  0.17201928E-06
 -0.15113072E-06 -0.54172971E-07 -0.27458315E-07  0.77533396E-08  0.18054213E-07
  0.12097585E-07  0.10830340E-07  0.38329241E-07  0.31062937E-07  0.32844348E-08
  0.12877896E-07 -0.47508248E-08 -0.56288447E-08  0.19515321E-06 -0.10681926E-06
  0.45892400E-06 -0.59916899E-06  0.64293926E-06 -0.28760892E-06 -0.53298640E-06
 -0.67800419E-06 -0.49403917E-06 -0.10182094E-06 -0.25773124E-07 -0.85570730E-08
  0.35084728E-07  0.41348989E-07  0.19567743E-08  0.38455909E-07 -0.17184710E-07
 -0.70147576E-08 -0.10164086E-05 -0.23684642E-06 -0.55682102E-06 -0.38271674E-06
  0.10626219E-05 -0.73811249E-07 -0.64235107E-06 -0.63684852E-06  0.12482992E-06
 -0.28428980E-06 -0.46583589E-06  0.57552862E-06 -0.28103425E-06  0.45386667E-06
  0.97853051E-07  0.43936562E-06  0.79870052E-06  0.40089066E-06 -0.36368450E-07
 -0.11143680E-06 -0.17049453E-06 -0.19630352E-06  0.44736685E-06  0.74461323E-07
  0.18445808E-06  0.73846237E-06  0.23815590E-06  0.50657523E-08  0.73623927E-08
  0.30738562E-07  0.16138533E-07  0.34417783E-07  0.13321062E-07  0.48969604E-08
 -0.88735082E-09 -0.62372021E-09 -0.47361979E-08 -0.74353386E-08 -0.28621871E-08
  0.18370861E-07  0.34663195E-07  0.17640024E-07  0.30215147E-08  0.14460203E-07
 -0.14890575E-07  0.47094600E-08  0.12442494E-08  0.40699076E-08 -0.45759498E-07
 -0.81496222E-07  0.22440664E-06  0.91457641E-08  0.84695548E-08 -0.44365439E-07

 -0.18101952E-07 -0.31046635E-08  0.34277609E-08  0.20775526E-08  0.14377213E-07
 -0.34696449E-08 -0.23092139E-07  0.31406364E-08 -0.30615544E-08  0.23990737E-06
 -0.55635710E-06 -0.23390788E-06  0.50382889E-07 -0.41008587E-06 -0.18204208E-06
  0.17759557E-06  0.74971425E-06  0.53860812E-06 -0.41932192E-06  0.67387177E-06
 -0.75750941E-07 -0.91526062E-07  0.89260888E-06 -0.27760234E-07  0.48180399E-06
 -0.74736389E-06  0.22781994E-06  0.37422921E-06 -0.43505330E-06  0.11084859E-06
 -0.19582858E-06  0.31676478E-06 -0.82080239E-07  0.32448164E-06 -0.54201892E-06
 -0.36559592E-06 -0.28340747E-07  0.21755219E-07 -0.14660479E-08 -0.48839883E-08
 -0.35381308E-07  0.89518566E-08 -0.38528780E-07 -0.44119969E-09  0.24688909E-08
 -0.33482714E-06  0.60354673E-06  0.15887668E-06  0.11687924E-06 -0.10330190E-05
  0.39558367E-06  0.84948903E-06 -0.42420661E-06 -0.35897195E-06  0.45050972E-06
 -0.49744245E-06 -0.17092513E-06 -0.48984047E-06 -0.52179187E-06 -0.46744322E-07
 -0.72816681E-06 -0.19418469E-06 -0.15130884E-06 -0.98726682E-08  0.58800662E-08
  0.92480120E-08 -0.23914064E-08 -0.11685311E-07  0.38205699E-08  0.14616745E-08
 -0.99748901E-08  0.89904736E-08  0.57040583E-09 -0.47497159E-08  0.58777812E-08
 -0.11032897E-07 -0.99309697E-08  0.22993036E-08  0.14088324E-07  0.48196992E-08
  0.17972943E-07 -0.68400599E-08  0.11732156E-07 -0.10212760E-08 -0.12984702E-07
 -0.81944886E-08 -0.13857936E-08  0.16346900E-07  0.52030819E-08  0.87355615E-08
 -0.37047278E-06 -0.34710051E-06 -0.11970132E-06  0.29635083E-06 -0.34253876E-06
 -0.83049889E-07 -0.31002427E-06 -0.11138399E-07 -0.13380559E-07 -0.29591691E-07
  0.45177365E-08 -0.46189358E-08  0.84895018E-08 -0.15623172E-07 -0.67654788E-08
 -0.42557556E-07 -0.56683789E-08  0.36099897E-08  0.38533292E-06 -0.40252436E-06
  0.15097729E-06  0.20705516E-06  0.33491254E-06 -0.20130157E-06 -0.44385012E-06
 -0.11014211E-06 -0.29689625E-06 -0.66052099E-07 -0.30547626E-07  0.15634149E-07
 -0.44533634E-08  0.12497167E-07 -0.93152072E-08 -0.19993399E-08  0.59287017E-08
  0.20001320E-08  0.43116211E-07 -0.81864518E-06 -0.89374818E-06  0.12164140E-06
  0.41362334E-07 -0.26796586E-06  0.75472548E-06 -0.77418929E-06  0.13582636E-06
  0.13806705E-05 -0.65535763E-06  0.47181811E-06 -0.22092543E-05  0.58478737E-07
  0.27533336E-06  0.29270860E-06  0.19825879E-06  0.37288237E-08  0.52513175E-07
  0.44272586E-08  0.72806030E-07 -0.52781201E-07  0.58153410E-06 -0.49529856E-06
  0.50300213E-06 -0.61893153E-07  0.13013466E-06 -0.22591867E-08 -0.10696701E-07
  0.20903031E-08  0.86514520E-09  0.29631851E-07  0.80864407E-08  0.26097977E-07
  0.60279988E-08  0.11765382E-07 -0.43462761E-08 -0.44850329E-08 -0.10851688E-07
 -0.79201274E-08  0.15024812E-07 -0.52167056E-08  0.91696663E-09  0.45636065E-08
  0.10610601E-08  0.67451832E-08 -0.53929852E-08 -0.58161113E-08 -0.27931787E-07
 -0.85164292E-07  0.91457641E-08  0.40913527E-06 -0.26283559E-07 -0.58643754E-09

  0.15538478E-07 -0.12370581E-07  0.37431902E-08 -0.37896025E-10  0.14075634E-07
 -0.28464306E-08  0.77638440E-08  0.81564470E-08  0.91476880E-08 -0.25084488E-06
 -0.15267097E-06 -0.33849641E-06 -0.49049735E-07 -0.27940224E-06  0.35574282E-06
 -0.29983916E-06  0.13258823E-06 -0.44055537E-08 -0.23918316E-06 -0.50528722E-06
  0.42018414E-06  0.10139619E-05  0.24293193E-06 -0.27634091E-06  0.90669431E-06
  0.23947510E-06 -0.26628037E-06  0.57663775E-06  0.31676456E-06  0.26797959E-06
 -0.51244531E-06  0.12383682E-06 -0.14897580E-06 -0.55088907E-07  0.26642286E-06
 -0.31635997E-06  0.15833437E-08  0.15748399E-07  0.31580004E-08  0.10410607E-07
 -0.30510058E-08  0.79116133E-08  0.48478611E-08  0.72827491E-08 -0.85706911E-08
  0.20785924E-06 -0.17864782E-08  0.49031711E-06  0.96206709E-07 -0.59427840E-06
  0.50201005E-06  0.69304687E-07  0.13780857E-06  0.10728342E-06 -0.35411763E-07
 -0.26666623E-07  0.72802762E-07  0.77290880E-07  0.32610528E-06  0.26127561E-07
  0.14395754E-06  0.53277103E-07 -0.87768929E-07  0.16172954E-07 -0.14160095E-07
 -0.55578116E-08  0.19934094E-08  0.27815138E-08 -0.53009374E-08  0.87502139E-08
 -0.14321618E-08 -0.58900569E-08 -0.83424709E-08  0.41820958E-10 -0.16018508E-07
 -0.18433844E-08  0.26680779E-08  0.14183977E-07  0.15527743E-08  0.16135348E-07
  0.22370189E-08  0.76991620E-08 -0.17100940E-07  0.16160299E-09  0.23968669E-09
 -0.42243880E-08 -0.23685431E-08 -0.52922373E-08  0.43432635E-08 -0.41590612E-08
 -0.10652790E-07  0.70966519E-07 -0.32231307E-08 -0.12049292E-06  0.35236325E-06
 -0.22339736E-06  0.23850063E-07 -0.56115074E-07 -0.29641505E-07 -0.54584065E-08
  0.20466381E-07 -0.68907964E-08  0.38794231E-08  0.10984351E-07  0.80421733E-09
 -0.63415508E-08  0.58444948E-08 -0.70902906E-08 -0.32414742E-06 -0.27981177E-06
  0.27081799E-06 -0.21072933E-06  0.18752137E-06 -0.23304461E-06 -0.17730037E-06
  0.14450633E-06 -0.40818013E-07 -0.14265665E-07  0.95902330E-08 -0.22066740E-07
  0.57142770E-07 -0.13243248E-07  0.15836452E-07  0.15061098E-07 -0.26768060E-07
 -0.46515362E-08  0.76367676E-07  0.52180510E-07 -0.11308476E-06  0.56656034E-07
  0.11870926E-06 -0.57139790E-06 -0.44818341E-06  0.15602881E-07  0.28264955E-06
  0.72131644E-06  0.99556942E-07  0.62330868E-07 -0.17409860E-05  0.25616932E-06
 -0.25219007E-06 -0.67103241E-06 -0.16850596E-06  0.32721784E-06 -0.10380321E-05
 -0.38109430E-06 -0.43667362E-07 -0.18705318E-06  0.28801764E-06 -0.93743711E-07
 -0.14639170E-06  0.14604500E-06 -0.31076617E-06 -0.47610646E-08 -0.24255138E-08
  0.65424045E-08 -0.59875659E-09  0.10679195E-07 -0.68764762E-08  0.26868352E-08
 -0.63419451E-08 -0.24528325E-08  0.80562766E-08  0.63880304E-08 -0.23556319E-08
  0.54564320E-08  0.49985223E-08  0.14152647E-07 -0.44721574E-08 -0.18292549E-08
 -0.50423735E-08 -0.73186011E-09  0.65061542E-08  0.58422183E-08  0.74883998E-08
  0.13023337E-07  0.84695548E-08 -0.26283559E-07  0.19869682E-06 -0.21109165E-07

 -0.18286636E-07  0.96991268E-08 -0.31422439E-08  0.12552723E-07 -0.10870664E-07
 -0.49272716E-08  0.26887085E-07 -0.62516651E-08 -0.19929804E-07  0.62484159E-06
 -0.84300304E-09 -0.31074132E-06 -0.19345598E-06 -0.39739084E-06  0.53394654E-06
 -0.26821682E-06 -0.96679010E-07  0.22220401E-06  0.31786674E-06  0.62583902E-06
  0.90105075E-07 -0.27868923E-06 -0.72032945E-06  0.48970353E-06  0.28516787E-06
  0.45619465E-07  0.39070968E-06  0.53572575E-07  0.10920683E-06  0.30427945E-06
  0.28675694E-06  0.18983072E-06 -0.27519913E-06  0.30334681E-06 -0.15627627E-06
  0.72819811E-06 -0.32824082E-09 -0.76740381E-08  0.53406689E-08 -0.18252915E-07
 -0.36370598E-08  0.26627767E-08 -0.50688292E-08 -0.25749127E-08  0.16191862E-07
 -0.71966359E-07 -0.16161773E-06 -0.24005355E-06  0.33225589E-06 -0.10223525E-05
 -0.50727284E-06  0.34254192E-06  0.22967413E-06 -0.28459917E-06 -0.46402648E-07
  0.15740994E-06  0.27712421E-06 -0.48712708E-07  0.15875099E-06 -0.17146891E-06
 -0.11683062E-06  0.23144252E-06 -0.22188658E-06 -0.69903920E-08  0.77169707E-08
 -0.18264622E-08 -0.85413115E-08  0.40646158E-08  0.10789392E-07 -0.13645101E-07
 -0.48508924E-08  0.11339425E-07  0.31523580E-08  0.65237848E-08  0.43744651E-08
  0.33075158E-08 -0.41565306E-08 -0.18663900E-09  0.22172733E-08  0.15003374E-08
 -0.14221610E-07  0.20219825E-07  0.31859463E-08  0.13903605E-07  0.61496194E-08
 -0.15093055E-08  0.30570670E-08  0.26701040E-08 -0.96520135E-08  0.16575069E-07
  0.19244118E-06  0.38509624E-08  0.11782849E-06  0.21497659E-06  0.39176885E-06
 -0.21529314E-06  0.38883975E-06  0.13874093E-06  0.75234526E-07 -0.26501344E-09
  0.84389028E-09  0.12510751E-07  0.44825434E-08 -0.11576076E-07  0.64234000E-08
  0.39093833E-08 -0.52917958E-08  0.16449866E-07  0.18619083E-06  0.75736045E-07
 -0.11422700E-06  0.15943554E-06 -0.50730058E-06  0.25858922E-06  0.27560333E-06
  0.29951153E-06  0.40695075E-06  0.51172084E-07  0.73411727E-08  0.21989779E-07
 -0.58218089E-07 -0.52100244E-07  0.80755101E-08 -0.77897408E-07  0.14479317E-07
  0.95061586E-08  0.10691923E-05 -0.13545698E-06  0.39828515E-07  0.57200710E-06
 -0.10128853E-05 -0.31886410E-06  0.53651137E-06  0.26628204E-06 -0.49411583E-06
  0.40588867E-07  0.26400435E-06 -0.16351114E-06  0.16539347E-05 -0.68004532E-06
 -0.18099857E-06  0.12802457E-06  0.22700850E-06  0.62854975E-06  0.12726707E-06
 -0.40717040E-06  0.61303106E-06  0.33011487E-06 -0.72486999E-06 -0.40091161E-06
 -0.53470210E-07  0.13868521E-06 -0.13547347E-06  0.95269240E-08  0.40498016E-07
 -0.11380285E-07 -0.58520346E-08 -0.16263407E-08  0.11970348E-07  0.16993008E-07
  0.37407543E-08  0.15747887E-07 -0.42897311E-08  0.18376023E-07  0.11985045E-07
  0.67340666E-08 -0.54719337E-08 -0.55026955E-08  0.21589235E-09 -0.47875538E-08
  0.54347131E-08  0.12857043E-08 -0.29596072E-07 -0.72886670E-08  0.16128318E-07
 -0.79191186E-07 -0.44365439E-07 -0.58643754E-09 -0.21109165E-07  0.28469329E-06


;

# ===========
# Reflections
# ===========

_diffrn_radiation_wavelength        0.710730

_shelx_F_calc_maximum               56.217819

_reflns_d_resolution_high           5.944850
_reflns_d_resolution_low            0.651790
_reflns_limit_h_max                 11
_reflns_limit_h_min                 -11
_reflns_limit_k_max                 14
_reflns_limit_k_min                 0
_reflns_limit_l_max                 14
_reflns_limit_l_min                 0
_reflns_number_gt                   2357
_reflns_number_total                2357
_reflns_threshold_expression        'F>0 & F/u(F)>3.0 & |F_calc|>10^-3'

_reflns_special_details
;
* Specify symmetry and Friedel pair averaging *

. Only reflections which satisfy the threshold expression
  are listed below, and only they are considered observed,
  thus the *_gt, *_all, & *_total data are always the same
;

# ============
# Bond lengths
# ============

loop_
 _geom_bond_atom_site_label_1
 _geom_bond_site_symmetry_1
 _geom_bond_atom_site_label_2
 _geom_bond_site_symmetry_2
 _geom_bond_distance
 _geom_bond_publ_flag
   O1  .   C2  .  1.2229(5)  yes
   O2  .   C5  .  1.2462(7)  yes
   O3  .   C5  .  1.2523(5)  yes
   N1  .   C1  .  1.4708(7)  yes
   N2  .   C2  .  1.3373(7)  yes
   N2  .   C3  .  1.4489(6)  yes
   N1  .   H1  .  1.023(9)   yes
   N1  .   H2  .  1.006(11)  yes
   N1  .   H3  .  1.022(10)  yes
   N2  .   H6  .  1.045(7)   yes
   C1  .   C2  .  1.5266(7)   yes
   C3  .   C4  .  1.5244(9)   yes
   C3  .   C5  .  1.5357(6)   yes
   C1  .   H4  .   1.117(8)   yes
   C1  .   H5  .   1.104(8)   yes
   C3  .   H7  .   1.090(9)   yes
   C4  .   H8  .   1.067(13)  yes
   C4  .   H9  .   1.039(14)  yes
   C4  .  H10  .   1.087(10)  yes

# ===========
# Bond Angles
# ===========

loop_
 _geom_angle_atom_site_label_1
 _geom_angle_site_symmetry_1
 _geom_angle_atom_site_label_2
 _geom_angle_site_symmetry_2
 _geom_angle_atom_site_label_3
 _geom_angle_site_symmetry_3
 _geom_angle
 _geom_angle_publ_flag
   O2  .  C5  .   O3  .       123.73(4)  yes
   O1  .  C2  .   N2  .       124.08(4)  yes
   O1  .  C2  .   C1  .       120.76(5)  yes
   O2  .  C5  .   C3  .       120.03(4)  yes
   O3  .  C5  .   C3  .       116.02(5)  yes
   N1  .  C1  .   C2  .       108.70(4)  yes
   N2  .  C2  .   C1  .       115.16(4)  yes
   N2  .  C3  .   C4  .       109.45(4)  yes
   N2  .  C3  .   C5  .       114.40(5)  yes
   N1  .  C1  .   H4  .        107.8(6)  yes
   N1  .  C1  .   H5  .        110.4(5)  yes
   N2  .  C3  .   H7  .        108.3(4)  yes
   C2  .  N2  .   C3  .      120.50(4)   yes
   C1  .  N1  .   H1  .        109.6(6)  yes
   C1  .  N1  .   H2  .        113.6(6)  yes
   C1  .  N1  .   H3  .        108.6(5)  yes
   C2  .  N2  .   H6  .        121.3(5)  yes
   C3  .  N2  .   H6  .        117.6(5)  yes
   C4  .  C3  .   C5  .      108.05(5)   yes
   C2  .  C1  .   H4  .        110.8(4)  yes
   C2  .  C1  .   H5  .        110.5(5)  yes
   C3  .  C4  .   H8  .        108.4(6)  yes
   C3  .  C4  .   H9  .        110.4(7)  yes
   C3  .  C4  .  H10  .        111.2(6)  yes
   C4  .  C3  .   H7  .        110.2(5)  yes
   C5  .  C3  .   H7  .        106.4(4)  yes
   H1  .  N1  .   H2  .        109.9(8)  yes
   H1  .  N1  .   H3  .        110.0(7)  yes
   H2  .  N1  .   H3  .        105.1(8)  yes
   H4  .  C1  .   H5  .       108.5(7)   yes
   H8  .  C4  .   H9  .       106.3(9)   yes
   H8  .  C4  .  H10  .       108.2(10)  yes
   H9  .  C4  .  H10  .       112.0(10)  yes
