# ========================
# Tonto generated CIF file
# ========================

# NOTE: This is an incomplete CIF file
# Manually edit it to pass checkCIF

data_my_job

_audit_creation_date                2018-4-20
_audit_creation_method              'Tonto 18.04.19 github v. 61a3969'

# ============
# QCr software
# ============

_QCr_software                       'Tonto'
_QCr_software_version               '18.04.19 v. 61a3969'
_QCr_software_platform              'Linux-4.4.0-98-generic'
_QCr_software_build_date            '2018-04-19 16:02'
_QCr_software_website               'https://github.com/dylan-jayatilaka/tonto'

# ===========
# Publication
# ===========

_publ_contact_author
;
    Prof. Dr. Sir Tonto Magnifico
;
_publ_contact_author_email          'tonto.magnifico@gmail.com'
_publ_contact_author_phone          '+61 8 6488 3138'
_publ_requested_journal             'IUCrJ'
_publ_section_title
;
   'Hirshfeld atom-refinement (HAR) for my_job'
   'X-ray wavefunction refinement (XWR) for my_job'
   Tonto Magnifico, IUCrJ (XXXX)
;

loop_
    _publ_author_name
    'Tonto Magnifico'

_publ_author_address
;
    Prof. Dr. Sir Tonto Magnifico
    1 El Camino Ciberespacio
    Tierra Austral del Espiritu Santo
;

# ========
# Chemical
# ========

_chemical_name_common               my_job
_chemical_formula_sum               'C14 H8 O3'
_chemical_formula_moiety            'C14 H8 O3'
_chemical_formula_weight            224.2181
_chemical_compound_source           'see text'
_chemical_absolute_configuration    unk

# ==========
# QCr method
# ==========

_QCr_calc_method                    'Hartree-Fock'
_QCr_calc_spinorbital_kind          'restricted'
_QCr_calc_gaussian_basis_set        'STO-3G'
_QCr_calc_gaussian_basis_set_kind   'cartesian'
_QCr_calc_basis_max_l               '1'

_QCr_calc_unit                      'See _atom_site_* in tonto.cif2'
_QCr_calc_unit_spin_multiplicity    1
_QCr_calc_unit_n_electrons          116
_QCr_calc_unit_n_alpha_electrons    58
_QCr_calc_unit_n_beta_electrons     58

# =======
# Crystal
# =======

_exptl_crystal_description          ?
_exptl_crystal_colour               ?
_exptl_crystal_size_max             ?
_exptl_crystal_size_mid             ?
_exptl_crystal_size_min             ?
_exptl_crystal_density_diffrn       ?

# ==============
# Absortion data
# ==============

_exptl_absorpt_coefficient_mu       ?
_exptl_absorpt_correction_type      'none'
_exptl_absorpt_process_details      ?
_exptl_absorpt_correction_T_min     ?
_exptl_absorpt_correction_T_max     ?

# ========
# Symmetry
# ========

_symmetry_cell_setting              Monoclinic
_symmetry_space_group_name_H-M      'p 1 21/n 1'
_symmetry_space_group_name_Hall     '-p 2yn'
_symmetry_Int_Tables_number         '14'

loop_
    _symmetry_equiv_pos_as_xyz
'+x, +y, +z'
'-x, -y, -z'
'-x+1/2, +y+1/2, -z+1/2'
'+x+1/2, -y+1/2, +z+1/2'

# =========
# Unit cell
# =========

_cell_measurement_temperature  ?
_cell_measurement_reflns_used  ?
_cell_measurement_theta_min    ?
_cell_measurement_theta_max    ?

_cell_length_a                    3.7170(10)
_cell_length_b                     19.513(6)
_cell_length_c                     13.440(4)
_cell_angle_alpha               90.000000(0)
_cell_angle_beta                   97.107(5)
_cell_angle_gamma               90.000000(0)
_cell_volume                        967.3(5)

_cell_formula_units_Z               4.000000

_atom_sites_solution_hydrogens      HAR

# ===============
# Refinement data
# ===============

_refine_ls_kind                     'Hirshfeld atom refinement (HAR)'
_refine_ls_method_description
;
   S.C. Capelli, H.-B. Burgi, B. Dittrich, S.Grabowsky
   and Dylan Jayatilaka, IUCrJ (2014). 1, 361-379
;
_refine_QCr_Psi_constraint          'none'

_refine_ls_SVD_threshold            0.1E-02
_refine_ls_coordinate_system        cartesian
_refine_ls_structure_factor_coeff   F
_refine_ls_matrix_type              full
_refine_ls_R_factor_gt              0.0445
_refine_ls_R_factor_all             0.0445
_refine_ls_wR_factor_gt             0.0274
_refine_ls_wR_factor_all            0.0274
_refine_ls_R_Fsqd_factor            0.0520
_refine_ls_goodness_of_fit_gt       1.4648
_refine_ls_goodness_of_fit_all      1.4648
_refine_ls_number_reflns            904
_refine_ls_number_parameters        226
_refine_ls_number_restraints        0
_refine_ls_number_constraints       0
_refine_ls_hydrogen_treatment       refall
_refine_ls_weighting_scheme         sigma
_refine_ls_weighting_details        'w=1/\s(F)'
_refine_ls_shift/su_conv_tol        0.0100
_refine_ls_shift/su_max             0.0011
_refine_ls_shift/su_max_mean        0.0002
_refine_ls_shift/su_max_par         'O10 py'
_refine_ls_extinction_method        none

_refine_diff_density_max            0.1344
_refine_diff_density_min            -0.1299
_refine_diff_density_rms            0.0312
_refine_diff_density_max_atom       0.0620
_refine_diff_density_max_atom_tag   O10
_refine_diff_density_min_atom       -0.0598
_refine_diff_density_min_atom_tag   C8A
_refine_diff_density_rms_atom       0.0324

_refine_special_details
;
. If constraints were applied they are defined by zero
  eigenvalues of the least-squares hessian, see the
  value of _refine_ls_SVD_threshold
;

# =====================================
# Precise fractional system coordinates
# =====================================

# . These precise data use non-standard CIF tags
# . Non-standard tags shadow standard tags to avoid duplication
# . Please keep for a better refinement restart
# . Better yet, use the refined cartesian parameters

loop_
_atom_site_Cryst_label
_atom_site_Cryst_x
_atom_site_Cryst_y
_atom_site_Cryst_z
_atom_site_Cryst_U_iso_or_equiv
_atom_site_Cryst_adp_type
_atom_site_Cryst_occupancy
_atom_site_Cryst_disorder_group
_atom_site_Cryst_x_esu
_atom_site_Cryst_y_esu
_atom_site_Cryst_z_esu
_atom_site_Cryst_U_iso_or_equiv_esu
   C1  0.598889   0.209147  0.936192  0.022240  Uani  1.000000  0
       0.000740   0.000183  0.000244  0.002129
   C2  0.736321   0.262110  0.881474  0.025188  Uani  1.000000  0
       0.000844   0.000224  0.000308  0.002315
   H2  0.842566   0.311243  0.912672  0.079075  Uani  1.000000  0
       0.011747   0.002329  0.002544  0.037829
   C3  0.726763   0.241311  0.779537  0.024108  Uani  1.000000  0
       0.000793   0.000184  0.000283  0.002236
   H3  0.834825   0.275448  0.718787  0.044875  Uani  1.000000  0
       0.007030   0.001625  0.002349  0.024373
  C3A  0.584183   0.175225  0.771680  0.020413  Uani  1.000000  0
       0.000732   0.000180  0.000237  0.002088
   C4  0.518625   0.131024  0.683292  0.023215  Uani  1.000000  0
       0.000793   0.000180  0.000245  0.002140
   O4  0.586555   0.148349  0.601330  0.032071  Uani  1.000000  0
       0.000546   0.000125  0.000164  0.001634
  C4A  0.368054   0.061670  0.701484  0.020339  Uani  1.000000  0
       0.000733   0.000182  0.000244  0.001987
   C5  0.309645   0.015408  0.623021  0.027091  Uani  1.000000  0
       0.000936   0.000217  0.000309  0.002489
   H5  0.387650   0.024894  0.553630  0.032336  Uani  1.000000  0
       0.006763   0.001769  0.002602  0.023838
   C6  0.185245  -0.049930  0.637871  0.029783  Uani  1.000000  0
       0.000899   0.000244  0.000308  0.002533
   H6  0.161207  -0.084166  0.579784  0.069033  Uani  1.000000  0
       0.009231   0.001757  0.003511  0.036361
   C7  0.113962  -0.069880  0.732771  0.029925  Uani  1.000000  0
       0.001025   0.000231  0.000309  0.002499
   H7  0.021294  -0.117006  0.743992  0.062723  Uani  1.000000  0
       0.009213   0.002312  0.002880  0.031290
   C8  0.164594  -0.024071  0.812204  0.024210  Uani  1.000000  0
       0.000800   0.000191  0.000293  0.002214
   H8  0.091795  -0.042175  0.888710  0.016778  Uani  1.000000  0
       0.005529   0.001465  0.002203  0.020218
  C8A  0.291389   0.041494  0.797555  0.019181  Uani  1.000000  0
       0.000719   0.000168  0.000240  0.001985
   C9  0.354190   0.089380  0.882133  0.019557  Uani  1.000000  0
       0.000729   0.000172  0.000250  0.002080
   O9  0.269502   0.069413  0.967634  0.026846  Uani  1.000000  0
       0.000517   0.000131  0.000168  0.001517
  C9A  0.501845   0.153412  0.867606  0.019100  Uani  1.000000  0
       0.000731   0.000173  0.000225  0.001951
  C10  0.554718   0.211907  1.038963  0.027072  Uani  1.000000  0
       0.001101   0.000241  0.000308  0.002578
  H10  0.592936   0.254523  1.075755  0.088333  Uani  1.000000  0
       0.008549   0.002401  0.004392  0.041930
  O10  0.426501   0.165931  1.085473  0.031289  Uani  1.000000  0
       0.000583   0.000133  0.000184  0.001603
   H9  0.331513   0.116492  1.026719  0.028631  Uani  1.000000  0
       0.010228   0.001569  0.003192  0.029275

# ======================
# Fractional coordinates
# ======================

loop_
_atom_site_label
_atom_site_fract_x
_atom_site_fract_y
_atom_site_fract_z
_atom_site_U_iso_or_equiv
_atom_site_adp_type
_atom_site_occupancy
_atom_site_disorder_group
   C1  0.5989(7)    0.20915(18)  0.9362(2)    0.022(2)    Uani  1.000000  0
   C2  0.7363(8)    0.2621(2)    0.8815(3)    0.025(2)    Uani  1.000000  0
   H2  0.843(12)    0.311(2)     0.913(3)     0.08(4)     Uani  1.000000  0
   C3  0.7268(8)    0.24131(18)  0.7795(3)    0.024(2)    Uani  1.000000  0
   H3  0.835(7)     0.2754(16)   0.719(2)     0.04(2)     Uani  1.000000  0
  C3A  0.5842(7)    0.17523(18)  0.7717(2)    0.020(2)    Uani  1.000000  0
   C4  0.5186(8)    0.13102(18)  0.6833(2)    0.023(2)    Uani  1.000000  0
   O4  0.5866(5)    0.14835(12)  0.60133(16)  0.0321(16)  Uani  1.000000  0
  C4A  0.3681(7)    0.06167(18)  0.7015(2)    0.020(2)    Uani  1.000000  0
   C5  0.3096(9)    0.0154(2)    0.6230(3)    0.027(2)    Uani  1.000000  0
   H5  0.388(7)     0.0249(18)   0.554(3)     0.03(2)     Uani  1.000000  0
   C6  0.1852(9)   -0.0499(2)    0.6379(3)    0.030(3)    Uani  1.000000  0
   H6  0.161(9)    -0.0842(18)   0.580(4)     0.07(4)     Uani  1.000000  0
   C7  0.1140(10)  -0.0699(2)    0.7328(3)    0.030(2)    Uani  1.000000  0
   H7  0.021(9)    -0.117(2)     0.744(3)     0.06(3)     Uani  1.000000  0
   C8  0.1646(8)   -0.02407(19)  0.8122(3)    0.024(2)    Uani  1.000000  0
   H8  0.092(6)    -0.0422(15)   0.889(2)     0.02(2)     Uani  1.000000  0
  C8A  0.2914(7)    0.04149(17)  0.7976(2)    0.019(2)    Uani  1.000000  0
   C9  0.3542(7)    0.08938(17)  0.8821(3)    0.020(2)    Uani  1.000000  0
   O9  0.2695(5)    0.06941(13)  0.96763(17)  0.0268(15)  Uani  1.000000  0
  C9A  0.5018(7)    0.15341(17)  0.8676(2)    0.019(2)    Uani  1.000000  0
  C10  0.5547(11)   0.2119(2)    1.0390(3)    0.027(3)    Uani  1.000000  0
  H10  0.593(9)     0.255(2)     1.076(4)     0.09(4)     Uani  1.000000  0
  O10  0.4265(6)    0.16593(13)  1.08547(18)  0.0313(16)  Uani  1.000000  0
   H9  0.332(10)    0.1165(16)   1.027(3)     0.03(3)     Uani  1.000000  0

# ==================================
# Precise cartesian axis system ADPs
# ==================================

# . These precise data use non-standard CIF tags
# . Non-standard tags shadow standard tags to avoid duplication
# . Keep these for a refinement restart
# . Better yet, use the refined cartesian parameters

loop_
_atom_site_Cryst_ADP2_U_label
_atom_site_Cryst_ADP2_U_11
_atom_site_Cryst_ADP2_U_22
_atom_site_Cryst_ADP2_U_33
_atom_site_Cryst_ADP2_U_12
_atom_site_Cryst_ADP2_U_13
_atom_site_Cryst_ADP2_U_23
_atom_site_Cryst_ADP2_U_11_esu
_atom_site_Cryst_ADP2_U_22_esu
_atom_site_Cryst_ADP2_U_33_esu
_atom_site_Cryst_ADP2_U_12_esu
_atom_site_Cryst_ADP2_U_13_esu
_atom_site_Cryst_ADP2_U_23_esu
   C1   0.018564   0.025817   0.021336   0.005425  -0.001526   0.001709
        0.001800   0.002334   0.002233   0.001343   0.001432   0.001609
   C2   0.024870   0.022319   0.028070   0.005703   0.002054   0.004149
        0.001869   0.002543   0.002517   0.001514   0.001479   0.002012
   H2   0.213666   0.031581  -0.009238   0.045333   0.007810   0.002183
        0.050228   0.035747   0.028186   0.025957   0.022187   0.021980
   C3   0.023404   0.018732   0.030350   0.003114   0.003964  -0.002296
        0.001891   0.002272   0.002537   0.001470   0.001560   0.001818
   H3   0.039527   0.063485   0.041663   0.046982   0.045015   0.071982
        0.018238   0.030391   0.026232   0.015804   0.017538   0.022087
  C3A   0.022131   0.019367   0.020036   0.004538   0.003787   0.004490
        0.001761   0.002383   0.002137   0.001314   0.001349   0.001590
   C4   0.024878   0.025318   0.019815   0.008061   0.004219   0.007687
        0.001847   0.002406   0.002160   0.001379   0.001379   0.001652
   O4   0.050570   0.029886   0.017587   0.001079   0.011495   0.004149
        0.001536   0.001770   0.001616   0.001038   0.001072   0.001219
  C4A   0.019000   0.021621   0.020237   0.003058   0.001797   0.000026
        0.001713   0.002304   0.001941   0.001296   0.001302   0.001627
   C5   0.027805   0.029677   0.022716   0.004421  -0.001157  -0.002391
        0.002170   0.002809   0.002513   0.001696   0.001636   0.002065
   H5   0.009066   0.028834   0.052900  -0.017599  -0.020875  -0.007188
        0.018655   0.024013   0.028340   0.013775   0.015542   0.020333
   C6   0.031494   0.024278   0.032342   0.001901  -0.000968  -0.008057
        0.002131   0.002868   0.002589   0.001614   0.001603   0.002065
   H6   0.149922  -0.031747   0.077324  -0.002925  -0.032109   0.024308
        0.043715   0.022864   0.040693   0.016850   0.024744   0.020479
   C7   0.029927   0.023567   0.034895  -0.001716  -0.001508   0.000822
        0.002285   0.002634   0.002537   0.001677   0.001697   0.002244
   H7   0.058652   0.087060   0.030521  -0.045409  -0.041977   0.011294
        0.028925   0.038865   0.024518   0.023581   0.017122   0.023517
   C8   0.023977   0.021711   0.025984  -0.001461  -0.000721  -0.001770
        0.001899   0.002394   0.002331   0.001465   0.001562   0.001941
   H8  -0.014596   0.036608   0.024440   0.012705  -0.014839  -0.008872
        0.014605   0.024803   0.020798   0.011889   0.012328   0.017234
  C8A   0.015708   0.022175   0.019032  -0.000090  -0.000346   0.001681
        0.001697   0.002265   0.002011   0.001282   0.001266   0.001552
   C9   0.019060   0.021487   0.018504   0.002980   0.003835   0.006109
        0.001805   0.002368   0.002063   0.001296   0.001328   0.001622
   O9   0.032494   0.026081   0.022690   0.000430   0.006299   0.007204
        0.001369   0.001731   0.001453   0.000993   0.000982   0.001306
  C9A   0.018408   0.021449   0.016944   0.004382   0.000202   0.002008
        0.001668   0.002234   0.001952   0.001330   0.001263   0.001625
  C10   0.033136   0.028236   0.020138   0.002272   0.004464   0.002655
        0.002292   0.003077   0.002414   0.001955   0.001638   0.002194
  H10   0.020067   0.039508   0.192267  -0.012807  -0.039222   0.061167
        0.024428   0.032196   0.066530   0.021656   0.027144   0.031954
  O10   0.042719   0.031962   0.019813   0.002171   0.006366   0.000356
        0.001464   0.001830   0.001534   0.001183   0.001035   0.001414
   H9   0.135008  -0.064228   0.011914   0.001632  -0.003637  -0.050765
        0.039840   0.019525   0.028296   0.015329   0.019554   0.020114

# ====
# ADPs
# ====

loop_
_atom_site_aniso_label
_atom_site_aniso_U_11
_atom_site_aniso_U_22
_atom_site_aniso_U_33
_atom_site_aniso_U_12
_atom_site_aniso_U_13
_atom_site_aniso_U_23
   C1   0.0186(18)   0.026(2)     0.021(2)     0.0054(13)  -0.0015(14)   0.0017(16)
   C2   0.0249(19)   0.022(3)     0.028(3)     0.0057(15)   0.0021(15)   0.004(2)
   H2   0.21(5)      0.03(4)     -0.01(3)      0.05(3)      0.01(2)      0.00(2)
   C3   0.0234(19)   0.019(2)     0.030(3)     0.0031(15)   0.0040(16)  -0.0023(18)
   H3   0.040(18)    0.06(3)      0.04(3)      0.047(16)    0.045(18)    0.07(2)
  C3A   0.0221(18)   0.019(2)     0.020(2)     0.0045(13)   0.0038(13)   0.0045(16)
   C4   0.0249(18)   0.025(2)     0.020(2)     0.0081(14)   0.0042(14)   0.0077(17)
   O4   0.0506(15)   0.0299(18)   0.0176(16)   0.0011(10)   0.0115(11)   0.0041(12)
  C4A   0.0190(17)   0.022(2)     0.0202(19)   0.0031(13)   0.0018(13)   0.0000(16)
   C5   0.028(2)     0.030(3)     0.023(3)     0.0044(17)  -0.0012(16)  -0.002(2)
   H5   0.009(19)    0.03(2)      0.05(3)     -0.018(14)   -0.021(16)   -0.01(2)
   C6   0.031(2)     0.024(3)     0.032(3)     0.0019(16)  -0.0010(16)  -0.008(2)
   H6   0.15(4)     -0.03(2)      0.08(4)     -0.003(17)   -0.03(2)      0.02(2)
   C7   0.030(2)     0.024(3)     0.035(3)    -0.0017(17)  -0.0015(17)   0.001(2)
   H7   0.06(3)      0.09(4)      0.03(2)     -0.05(2)     -0.042(17)    0.01(2)
   C8   0.0240(19)   0.022(2)     0.026(2)    -0.0015(15)  -0.0007(16)  -0.0018(19)
   H8  -0.015(15)    0.04(2)      0.02(2)      0.013(12)   -0.015(12)   -0.009(17)
  C8A   0.0157(17)   0.022(2)     0.019(2)    -0.0001(13)  -0.0003(13)   0.0017(16)
   C9   0.0191(18)   0.021(2)     0.019(2)     0.0030(13)   0.0038(13)   0.0061(16)
   O9   0.0325(14)   0.0261(17)   0.0227(15)   0.0004(10)   0.0063(10)   0.0072(13)
  C9A   0.0184(17)   0.021(2)     0.017(2)     0.0044(13)   0.0002(13)   0.0020(16)
  C10   0.033(2)     0.028(3)     0.020(2)     0.002(2)     0.0045(16)   0.003(2)
  H10   0.02(2)      0.04(3)      0.19(7)     -0.01(2)     -0.04(3)      0.06(3)
  O10   0.0427(15)   0.0320(18)   0.0198(15)   0.0022(12)   0.0064(10)   0.0004(14)
   H9   0.14(4)     -0.06(2)      0.01(3)      0.002(15)    0.00(2)     -0.05(2)

# NOTE: Cartesian 9Nx9N covariance matrix in BOHR units
# The order of the variables (per atom) is as follows:
# . Elements 1-3: positions: x y x
# . Elements 4-9: 2nd order ADPs:
#      U 11 22 33 12 13 23
# . Elements 10-19: 3rd order ADPs (if refined):
#      U 111 222 333 112 113 122 223 133 233 123
# . Elements 20-34: 4th order ADPs (if refined):
#      U 1112 1113 1222 2223 1333 2333
#        1122 1133 2233 1123 1223 1233
# . Matrix is output in (fortran) column order

_asym_unit_covariance_matrix
;
  0.26234078E-04  0.36318034E-05  0.77950086E-06  0.26451502E-06 -0.12845477E-05
  0.91179894E-06  0.40105132E-06 -0.16811835E-05 -0.97218355E-06  0.16296067E-06
  0.36121641E-05  0.61418981E-06  0.14110411E-06 -0.15532546E-05 -0.11439855E-05
 -0.49738756E-06 -0.27034801E-07  0.32845043E-05 -0.13684238E-04  0.37798383E-04
  0.29335733E-04  0.36490469E-04 -0.11622089E-04 -0.33805857E-04 -0.11687060E-04
 -0.40382002E-04 -0.20605519E-04 -0.75326964E-06  0.12634076E-05 -0.29659191E-05
  0.54246654E-07  0.28529048E-05  0.36811510E-07  0.66381827E-06  0.33360419E-06
  0.12732805E-05 -0.25929286E-04 -0.71151446E-05  0.36679707E-05 -0.27677176E-04
  0.71071044E-04 -0.25180490E-04 -0.42310278E-05  0.99884816E-05  0.27796880E-04
 -0.93162479E-07  0.49250680E-06  0.16440990E-05  0.15335308E-05 -0.23746287E-06
 -0.10440913E-05  0.50643418E-06  0.18500804E-06  0.78853556E-06  0.10181811E-05
 -0.97847230E-06 -0.86316703E-06 -0.11096680E-05 -0.20602206E-06 -0.82459478E-08
 -0.49109720E-06 -0.11493130E-06 -0.25525171E-06 -0.14112499E-06  0.32476814E-07
  0.49535544E-06  0.78847386E-06 -0.11323903E-05  0.39227475E-06  0.90125371E-06
 -0.46790674E-06  0.38457393E-07  0.91982632E-06 -0.42044243E-06 -0.39597237E-06
 -0.65074633E-06 -0.13307524E-05  0.14537272E-05 -0.66409908E-06  0.67983940E-07
 -0.12543436E-05  0.93831354E-06 -0.27939854E-05  0.36266003E-06 -0.37572521E-05
 -0.52227900E-06  0.52044516E-06 -0.26882669E-05  0.63973993E-06  0.12257142E-06
  0.98840162E-05  0.12835639E-04  0.73512775E-05 -0.15866368E-05  0.95251434E-05
 -0.17376380E-04  0.40962046E-05  0.18511560E-04  0.54812626E-05 -0.70384256E-06
  0.45688845E-06 -0.19303072E-05  0.77074382E-07 -0.18438747E-05  0.39873477E-06
 -0.43711630E-06  0.41855488E-06  0.15925956E-05  0.38128121E-05  0.10991260E-04
  0.83398990E-06  0.68761926E-04 -0.19582749E-04  0.17496395E-05 -0.21919096E-04
 -0.14987409E-04 -0.90399341E-05 -0.12808592E-05 -0.71809982E-06  0.58233445E-07
 -0.20032665E-06 -0.37849794E-07 -0.19364689E-05  0.43502836E-06  0.51958802E-06
 -0.25993592E-06  0.70038442E-05 -0.35579649E-04 -0.30898278E-04 -0.53239582E-05
 -0.22701534E-04 -0.43625879E-06  0.11463523E-04 -0.10275032E-04  0.38322327E-05
 -0.10261001E-05 -0.26004018E-05 -0.15636103E-06 -0.14402690E-06 -0.50717369E-06
  0.45075014E-06 -0.75104001E-06 -0.15877160E-05  0.66700201E-06 -0.17195799E-04
 -0.19543002E-04  0.44348221E-05 -0.10822005E-05 -0.10110686E-04  0.78955959E-05
  0.74897755E-05 -0.28525514E-05  0.46057673E-06  0.15195402E-05 -0.34593865E-06
 -0.55474487E-07  0.20607528E-05  0.18178715E-06 -0.24590185E-05  0.97577080E-06
 -0.14313420E-06  0.32541456E-06 -0.21797666E-05  0.24408173E-05 -0.25482394E-06
  0.11506884E-05  0.92095139E-06 -0.96422632E-06  0.71337036E-06  0.60382235E-06
 -0.14767235E-05  0.34593844E-06  0.76758194E-06  0.13540940E-06 -0.89232602E-06
  0.97296727E-06  0.13415655E-06  0.10227296E-05  0.12388002E-05 -0.44048244E-06
  0.98193662E-06  0.64125407E-06  0.14147598E-05 -0.14846266E-05  0.65029784E-06
 -0.45645523E-06 -0.13186414E-05 -0.10176677E-05  0.48458685E-06  0.20246841E-05
 -0.22131132E-05 -0.12207443E-05  0.33496570E-05 -0.11820692E-05  0.20127572E-05
  0.17896949E-05  0.34962635E-05 -0.29322180E-06 -0.15777986E-04 -0.14691430E-05
 -0.16654633E-05 -0.71921210E-05  0.10237838E-04 -0.61360125E-04  0.53447306E-04
  0.60036647E-04  0.12546588E-04 -0.46600799E-06  0.13682348E-05 -0.32801401E-06
 -0.18274353E-06  0.98661957E-07 -0.92602470E-06 -0.36976194E-06 -0.16549764E-06
 -0.72201174E-06 -0.27565441E-05  0.16051261E-05  0.16822544E-04 -0.27052034E-04
  0.82167973E-07  0.59894372E-05 -0.10866926E-05 -0.15280365E-04  0.28967477E-05

  0.36318034E-05  0.45407185E-04  0.27584176E-06  0.76837259E-06 -0.12626948E-05
 -0.27611569E-06  0.13107949E-05  0.54928668E-07  0.25356915E-06  0.43175749E-05
  0.39762458E-06 -0.77717493E-06 -0.42220133E-05  0.56291750E-05 -0.37306048E-06
 -0.17424542E-05  0.23386673E-05 -0.21572526E-06 -0.21346982E-04  0.37589355E-04
 -0.14899586E-05 -0.11232397E-04 -0.37478398E-04 -0.25534140E-04 -0.54290041E-04
 -0.14462341E-04 -0.19200767E-04  0.75798180E-06 -0.39521491E-05 -0.31206188E-06
  0.11451824E-05 -0.28437887E-05 -0.23491184E-05  0.31373537E-05 -0.41037995E-08
  0.29144044E-05 -0.12234995E-04  0.18478325E-04  0.77183359E-06 -0.18737511E-04
  0.77697670E-04 -0.38040187E-05 -0.56492283E-05  0.21315163E-05  0.22936130E-04
 -0.24160131E-05 -0.58689423E-06 -0.11479168E-05  0.18578630E-05  0.26289087E-05
  0.12988164E-05 -0.19721673E-05  0.19834651E-05  0.46131208E-06  0.89708536E-06
 -0.33307639E-06 -0.16525569E-05  0.87961115E-06 -0.24988794E-05 -0.93796929E-06
 -0.90308756E-06 -0.55182605E-06 -0.15122703E-05 -0.93102956E-06 -0.29722680E-05
 -0.19342383E-07  0.12365011E-05 -0.26472656E-05  0.84855272E-06  0.29582868E-06
  0.56287378E-06  0.11612429E-06  0.12894947E-05  0.83628001E-06  0.17492886E-06
  0.19139524E-06 -0.26732355E-05  0.90254091E-06 -0.80962125E-07  0.37561663E-06
 -0.64237287E-06 -0.89853696E-06 -0.20618146E-05  0.28078325E-05  0.26073987E-06
 -0.17214886E-05 -0.26804883E-05 -0.17959572E-05  0.12198582E-05  0.20506966E-05
 -0.11137604E-04 -0.16363868E-04  0.14961713E-04 -0.10925469E-04  0.23542708E-04
  0.33908060E-04 -0.35086623E-05  0.18658708E-05  0.33800751E-05 -0.16944491E-05
 -0.67499854E-06 -0.42057237E-06 -0.16444800E-06 -0.29488854E-05  0.42712894E-06
 -0.16526692E-06  0.83988696E-06  0.56472956E-06  0.89470661E-05 -0.45124742E-05
 -0.44510809E-04  0.26644379E-04 -0.27226291E-04  0.21716623E-04 -0.12135950E-04
 -0.12784168E-04 -0.65222102E-05  0.10326407E-06 -0.17151068E-05  0.48892462E-06
  0.22216812E-07 -0.53664507E-06 -0.11218101E-05 -0.67546575E-06 -0.80461918E-06
 -0.34263137E-06  0.83961659E-06 -0.64190284E-05 -0.18435345E-04 -0.16795872E-04
  0.21201591E-04 -0.82507057E-05 -0.15972986E-04  0.10224631E-04 -0.25459895E-04
  0.49408466E-06 -0.19324885E-05  0.10471524E-05 -0.14301105E-05  0.20100922E-05
  0.16131191E-05 -0.96144897E-06 -0.10844132E-05 -0.67697499E-06 -0.17476180E-04
 -0.73417440E-05 -0.15599510E-04  0.12983306E-04 -0.12136931E-04 -0.16350359E-04
  0.10283120E-04 -0.16665623E-05 -0.13370761E-04 -0.25643998E-05 -0.96129286E-06
 -0.38779363E-06  0.12691398E-05 -0.33126678E-05  0.16131106E-07  0.49266574E-06
  0.79633173E-07  0.44075721E-06 -0.54238899E-06  0.63606933E-06  0.95974358E-06
 -0.76557340E-07 -0.31947124E-05 -0.72261929E-06 -0.15989041E-05 -0.23142204E-06
 -0.11411749E-05  0.34243210E-06  0.49976851E-06 -0.83465562E-06 -0.81109664E-06
 -0.14044283E-07 -0.15756678E-05  0.68958685E-06  0.35683054E-06 -0.10137735E-05
  0.92780670E-06  0.23303714E-05  0.27907025E-05 -0.40431955E-05  0.42167712E-05
  0.13369820E-05 -0.27822972E-08  0.10437000E-05  0.41375334E-05 -0.16718397E-05
  0.17163449E-05 -0.39015543E-05  0.12729305E-05  0.51085849E-05 -0.23550081E-06
  0.19554429E-05 -0.10101763E-05 -0.32035973E-05 -0.19249148E-04 -0.68778519E-04
  0.38523100E-04 -0.33066062E-05  0.99474946E-04 -0.28002759E-03  0.35534765E-04
  0.50386529E-04 -0.80076833E-04 -0.18121319E-05 -0.23178822E-05 -0.16047332E-05
 -0.29424000E-06  0.24783876E-05 -0.14409635E-05 -0.13243423E-05 -0.58638454E-06
 -0.19487328E-05 -0.55692529E-05 -0.24501237E-05 -0.17869280E-05  0.42450905E-04
 -0.78182900E-06 -0.26952280E-04 -0.32416076E-05  0.27535438E-05 -0.14054665E-04

  0.77950086E-06  0.27584176E-06  0.37846414E-04 -0.32361670E-06 -0.21138383E-05
 -0.11634132E-05  0.15362545E-07  0.42027697E-06 -0.72317144E-07 -0.61949184E-06
  0.23775472E-05  0.16848668E-06 -0.75297234E-06  0.17137216E-05 -0.46021560E-06
  0.10874099E-05 -0.31450856E-06 -0.10139071E-05  0.68372924E-04  0.20492559E-04
 -0.52363992E-05 -0.73208248E-05  0.13068878E-05 -0.46120570E-04 -0.93190938E-05
 -0.62834876E-04 -0.73263808E-06 -0.15847399E-05 -0.82857424E-06  0.12246785E-05
  0.18476862E-06 -0.32815908E-06  0.12952316E-05 -0.41949233E-06  0.22045506E-05
  0.21208823E-05  0.16063970E-05 -0.27853887E-04 -0.16717090E-04 -0.15024596E-04
  0.66717406E-05  0.40635118E-04  0.20652056E-04 -0.18407344E-04  0.56772177E-05
  0.35206498E-06  0.18902249E-05 -0.29202719E-05 -0.59053994E-06 -0.32596011E-06
  0.95732720E-06 -0.77812257E-06 -0.55995774E-07  0.13047053E-05 -0.11550985E-05
  0.81154497E-07 -0.56389009E-06 -0.56526839E-06 -0.13407901E-05  0.41061524E-06
 -0.68049314E-06 -0.25325929E-06 -0.11705175E-05  0.62430675E-06 -0.10517962E-05
  0.10433969E-05  0.11205751E-05  0.13705049E-05 -0.31551627E-05 -0.27871161E-06
  0.80520019E-06 -0.48448163E-06  0.84879680E-06  0.22473408E-05  0.88619218E-06
  0.56504282E-06 -0.62485957E-06  0.13363703E-05 -0.50401124E-06  0.12120606E-05
  0.81294667E-06  0.53654708E-06 -0.99113583E-08  0.19941357E-05  0.55327117E-06
 -0.99779492E-06  0.19616264E-05 -0.31036204E-06 -0.10968127E-05 -0.11654921E-05
 -0.54293741E-05  0.24862317E-04  0.22342321E-04 -0.36406942E-06  0.70334292E-05
  0.35243701E-04 -0.70001389E-05 -0.11661281E-04 -0.95482227E-05 -0.14382875E-05
  0.24660948E-05 -0.15324675E-05  0.22797319E-05 -0.41161242E-06 -0.11462164E-05
  0.24500975E-05  0.12968279E-06 -0.91242515E-06  0.15515410E-04  0.18350531E-04
  0.45129390E-04 -0.14707396E-04 -0.14841937E-04  0.22568083E-04  0.47951334E-05
  0.25615508E-04 -0.24322834E-04 -0.53385247E-06  0.11171455E-05  0.37985507E-05
  0.74609298E-06  0.76917455E-06 -0.69836562E-06  0.16835633E-05 -0.19827235E-05
  0.14366551E-05  0.40054129E-05 -0.39707406E-04  0.26466151E-04  0.12021501E-04
  0.83888282E-05 -0.28143445E-04  0.63878219E-05 -0.13439864E-04  0.95696367E-05
 -0.18250112E-05  0.16820957E-05 -0.87183704E-06  0.28162215E-06  0.43648980E-06
 -0.18633022E-05 -0.13841338E-06 -0.41237308E-06 -0.35660502E-05  0.88873057E-05
 -0.92689166E-05 -0.10243898E-04  0.17809009E-05  0.84452136E-05 -0.30476869E-04
 -0.10825782E-05  0.26168275E-05  0.20264123E-04  0.57322821E-06  0.13990679E-06
 -0.55562463E-06 -0.11448801E-05 -0.63519852E-06  0.26275790E-05 -0.38908324E-06
 -0.18390278E-05 -0.50895062E-06 -0.23958341E-06 -0.33722547E-06 -0.44397921E-05
 -0.77707296E-06  0.10648510E-05  0.25451752E-05 -0.12319167E-05  0.10986732E-05
 -0.16593650E-06  0.31402794E-06  0.18782298E-06  0.44084354E-06 -0.39071412E-06
 -0.33239374E-06  0.33936833E-05 -0.68299578E-06 -0.58017244E-07  0.13066563E-07
 -0.51645597E-06  0.27372129E-05  0.82648633E-06 -0.10297234E-05  0.38359781E-05
 -0.25202967E-05  0.14970466E-06 -0.15284925E-05  0.49475035E-05  0.14980501E-05
  0.20764979E-05  0.36914170E-05  0.19750339E-05 -0.10502741E-05 -0.17329803E-05
  0.17799164E-05  0.33999768E-05 -0.56019593E-06 -0.18797922E-04  0.43044636E-04
  0.26561376E-04  0.40685191E-04 -0.37199479E-04 -0.51678634E-04  0.13740508E-04
  0.46985416E-05 -0.26132818E-04 -0.69350024E-06  0.96563901E-06  0.16098882E-07
 -0.75551817E-06 -0.34258265E-06 -0.11681640E-06  0.51770994E-06 -0.49332496E-06
 -0.52443736E-06  0.99135166E-05 -0.10883550E-04 -0.34458804E-04 -0.19999696E-04
  0.39499603E-05 -0.39907667E-04 -0.59469322E-05  0.10990942E-04  0.37738873E-05

  0.26451502E-06  0.76837259E-06 -0.32361670E-06  0.42594969E-04 -0.18587118E-04
 -0.15960270E-04  0.43166487E-06  0.30389325E-05 -0.23349364E-05 -0.10528934E-05
 -0.27183705E-05  0.95751782E-06  0.32463508E-05 -0.27886862E-05  0.23553832E-06
  0.19729304E-05 -0.16717278E-05  0.71778951E-06  0.68716730E-05 -0.71441522E-05
 -0.55792765E-06 -0.10872591E-03 -0.16678814E-04  0.38677982E-04 -0.23197781E-04
 -0.76573350E-05  0.12791365E-04  0.20145833E-05 -0.14227349E-05  0.13923582E-05
 -0.31295522E-06  0.77052323E-06 -0.48426598E-06  0.74923937E-06 -0.10824540E-05
 -0.11867813E-05 -0.93005050E-06  0.19155436E-05 -0.62071919E-05 -0.34501646E-04
  0.34936098E-04 -0.24350732E-05  0.77541976E-05 -0.28832598E-04  0.24331528E-04
 -0.12096511E-05  0.55362272E-06 -0.12306434E-05  0.30070117E-05 -0.28465548E-06
  0.10179713E-05  0.55296132E-06  0.94521455E-06  0.12232248E-05  0.69996652E-06
 -0.75054344E-06  0.11796292E-05 -0.12095294E-05  0.11735621E-05  0.63194795E-06
  0.46271682E-06 -0.64203893E-06 -0.81321335E-06  0.40730289E-06 -0.90963839E-06
 -0.67320607E-06  0.49175299E-07 -0.30898885E-06  0.35792011E-06 -0.18220103E-06
 -0.63504389E-06  0.23392361E-07  0.15676546E-05  0.96118526E-06  0.12354575E-06
 -0.66128572E-06  0.34297265E-06  0.56169858E-06 -0.14172437E-06  0.49459705E-06
  0.41661274E-06 -0.10604094E-05  0.18099849E-05 -0.30283325E-05 -0.11906768E-05
 -0.44869772E-06 -0.10092333E-07  0.14626446E-06 -0.81820617E-06  0.15945054E-05
  0.10104485E-04 -0.16864097E-04 -0.80094285E-05  0.16293557E-04  0.76502920E-05
 -0.13206797E-04 -0.16819304E-04  0.94391236E-06 -0.84425106E-06 -0.93622933E-06
  0.25740573E-05 -0.70670095E-06  0.11762395E-06  0.38796625E-06  0.25427918E-05
  0.10128805E-05  0.15505918E-06 -0.12786910E-05 -0.91915904E-05 -0.38020268E-05
 -0.20332281E-05  0.13803136E-04 -0.73973214E-05  0.36534692E-05  0.40217506E-05
  0.10096238E-04  0.10431077E-04 -0.16173810E-05 -0.37770648E-06 -0.74141278E-06
 -0.31732083E-05  0.25418318E-05 -0.11119962E-05  0.72787468E-06  0.50023343E-07
  0.15109824E-05 -0.10714483E-04 -0.27990966E-04  0.26275234E-04 -0.23705099E-04
  0.26437662E-04  0.20082545E-04 -0.11628809E-04  0.67641495E-05  0.11394332E-05
  0.94906542E-06  0.11294461E-06  0.53098259E-06  0.96538776E-06  0.95315213E-07
 -0.36016312E-06 -0.33345954E-06  0.97861038E-06 -0.41484345E-06 -0.68455873E-05
  0.18357606E-05  0.25342630E-05  0.29044245E-04 -0.18734452E-04 -0.12338124E-04
  0.58706881E-05  0.12097399E-05  0.25797963E-05 -0.91838368E-06  0.34981107E-06
  0.41253479E-07 -0.72361860E-06  0.16157469E-05  0.48952949E-06 -0.14875159E-05
 -0.42476844E-06 -0.67614005E-06 -0.26331745E-06 -0.12410444E-06  0.22468693E-05
 -0.39423715E-05  0.27141845E-05  0.68357666E-06  0.44851177E-06 -0.76776102E-06
 -0.22734950E-05  0.14676281E-05  0.26762121E-06  0.37159641E-06 -0.41143099E-06
  0.12106782E-05  0.28300175E-06  0.47291376E-06  0.49025347E-06  0.83015148E-06
  0.19939163E-05  0.25644580E-05  0.16011647E-05 -0.33880594E-05  0.31762973E-05
  0.84155530E-06  0.98120813E-06 -0.51972313E-06  0.31544756E-05 -0.31044102E-06
 -0.22775542E-05  0.13126973E-05 -0.76951921E-05 -0.18649689E-06  0.63198767E-05
 -0.17618202E-05 -0.27516313E-05  0.29465965E-05  0.29175622E-04 -0.11872544E-04
 -0.64685726E-04  0.62107670E-05 -0.31674055E-04  0.13834330E-03 -0.27602578E-05
 -0.39568339E-04  0.46010163E-04 -0.12216839E-05 -0.10506977E-05 -0.18344433E-05
 -0.76652142E-06  0.11994154E-05  0.21860812E-05 -0.47490532E-07  0.35875314E-06
  0.26856475E-06 -0.80186554E-05 -0.13463279E-04  0.68042285E-05  0.27212237E-04
 -0.62973918E-05  0.32771752E-05  0.26460047E-05 -0.12391879E-04 -0.16789551E-04

 -0.12845477E-05 -0.12626948E-05 -0.21138383E-05 -0.18587118E-04  0.69446166E-04
 -0.12858265E-04  0.36642208E-05 -0.44317123E-06  0.38353676E-05  0.46125071E-05
 -0.26173158E-06  0.16122713E-05  0.79045490E-06  0.61153527E-05 -0.31513478E-05
 -0.22210383E-06  0.46457035E-05  0.24031768E-05  0.12062756E-04  0.53641581E-04
  0.12553836E-04  0.13247475E-03 -0.13991032E-04  0.46661849E-05  0.64274377E-04
 -0.12655090E-04 -0.88355605E-05 -0.24546446E-05  0.50149369E-05 -0.63771492E-06
  0.13616984E-05 -0.65443792E-06 -0.25295039E-05  0.55074521E-06 -0.10112870E-05
  0.16976852E-05 -0.46465603E-05  0.22626749E-04  0.23479404E-04  0.22678253E-04
 -0.89387497E-05  0.13245042E-04 -0.11215688E-04  0.21347423E-04 -0.10225054E-04
  0.17881566E-05  0.16566736E-06  0.24896475E-05  0.61419883E-06 -0.13770802E-04
  0.37954975E-05 -0.18312397E-05 -0.47433577E-06  0.29419168E-06  0.18454284E-05
  0.25363945E-05  0.17986626E-05  0.91776336E-07  0.22058497E-05  0.20083117E-06
 -0.18392919E-05 -0.69939854E-06  0.58103367E-06  0.64276774E-06  0.49443486E-05
  0.96453774E-06 -0.11362686E-05  0.33016216E-05  0.14233944E-05 -0.17972877E-05
  0.65291784E-06 -0.13367020E-05 -0.26123278E-05  0.91134934E-06 -0.17757331E-05
  0.36222009E-06  0.49927150E-05 -0.78196924E-06  0.12771601E-05 -0.13408630E-06
 -0.12101012E-05  0.96290912E-06 -0.61292688E-05 -0.52932870E-06  0.16729483E-05
 -0.43573748E-05 -0.49526910E-07  0.21443979E-06  0.66453387E-06 -0.10771693E-05
 -0.75530541E-05 -0.21338738E-04 -0.42742431E-05  0.20943809E-05 -0.31096339E-04
 -0.76126892E-05 -0.16957307E-04  0.99297680E-05  0.30485849E-04 -0.31637062E-06
 -0.78774824E-05  0.65118297E-06 -0.15923675E-05  0.40774728E-05 -0.58232757E-06
 -0.16028884E-05  0.44469216E-06  0.13369678E-05 -0.94051881E-05  0.25237762E-04
 -0.39886440E-04  0.80913582E-04  0.31917261E-04 -0.63895086E-04  0.42647972E-04
  0.18463182E-05 -0.17445922E-04  0.55480074E-05  0.24987141E-06  0.64267067E-06
  0.10202538E-05 -0.75602576E-05  0.40950533E-05 -0.19778953E-05  0.16904378E-06
 -0.31178962E-05 -0.28029731E-04  0.96934790E-04 -0.31261471E-04  0.26026225E-04
 -0.46159917E-04 -0.18291877E-05 -0.39877501E-04  0.80063839E-06 -0.32310973E-04
  0.19710315E-06 -0.34497025E-06 -0.48273921E-06 -0.78940693E-06 -0.17719501E-05
  0.24957714E-05  0.84656034E-07 -0.13196941E-05  0.37252051E-06 -0.83973776E-05
  0.80501801E-05  0.14718045E-05 -0.80660158E-06  0.11152692E-04 -0.44040920E-05
  0.11993556E-04  0.51802397E-05  0.25409919E-04 -0.90745532E-06 -0.16757373E-05
  0.74761123E-06  0.15901161E-05 -0.25948499E-05  0.87936461E-06 -0.33247010E-05
  0.72473628E-06 -0.84624590E-08  0.19863032E-06  0.78316662E-06  0.11089638E-05
  0.28066101E-05 -0.82126935E-05  0.36767659E-05  0.19097280E-05 -0.88904776E-07
  0.83158209E-06 -0.15642312E-05  0.14925054E-05  0.10257951E-05  0.10026796E-05
  0.12216185E-05  0.70597427E-06 -0.30993946E-06  0.50133172E-06  0.78095841E-06
 -0.25598599E-05  0.32132563E-05 -0.37632657E-05  0.36482610E-05  0.53109638E-06
 -0.25986641E-05  0.30404203E-05  0.43236337E-07 -0.37390991E-05 -0.13151059E-05
  0.15298929E-05 -0.50377511E-05  0.28250560E-06  0.83507475E-05  0.17911140E-06
 -0.31931965E-06 -0.20968283E-05 -0.37022529E-05 -0.73225908E-05  0.46800351E-05
  0.90077593E-04  0.25813552E-04  0.80902988E-04 -0.20031403E-03 -0.44839943E-04
  0.12310214E-04  0.49931398E-04  0.31028806E-05  0.29073639E-06  0.12155484E-05
  0.13420880E-05 -0.36676449E-05  0.69021435E-06  0.31460908E-05  0.13048989E-05
 -0.33908150E-06  0.23127259E-04  0.62663351E-04 -0.18397553E-05  0.39851291E-04
 -0.18849964E-04 -0.70811171E-05  0.35930750E-05  0.21550885E-05  0.22711293E-04

  0.91179894E-06 -0.27611569E-06 -0.11634132E-05 -0.15960270E-04 -0.12858265E-04
  0.63205700E-04 -0.40081718E-06 -0.14250729E-05  0.68163409E-06 -0.45101177E-06
  0.13758577E-05 -0.23568404E-05 -0.63656373E-06  0.65037496E-06 -0.52966227E-06
 -0.23829016E-05 -0.22730699E-05  0.18965414E-06  0.20360632E-04  0.11954385E-04
 -0.21118959E-04  0.20116113E-04  0.43720123E-04 -0.49498174E-04 -0.11072729E-04
  0.54228479E-04 -0.12289500E-04  0.52279631E-06  0.18892695E-05 -0.59348873E-05
 -0.72701717E-06  0.40337576E-06  0.44431862E-05  0.10392596E-05  0.12952196E-05
 -0.96404293E-06  0.68408185E-05 -0.36227093E-05 -0.18936830E-04  0.49555084E-05
  0.18173478E-04 -0.34684148E-04 -0.24545375E-04  0.14293576E-06  0.17221181E-04
 -0.11582110E-06 -0.53971662E-06 -0.35679065E-05  0.17890364E-05  0.39317197E-05
 -0.31506767E-05  0.30682012E-06  0.13620249E-05 -0.28088367E-05  0.12080466E-05
  0.10434621E-05  0.23114508E-06  0.18842510E-05 -0.21253793E-05 -0.11820239E-05
  0.25937206E-06  0.46532317E-06  0.15713167E-05 -0.10718812E-05  0.43249046E-06
 -0.20348515E-05  0.22698220E-05 -0.98500780E-06 -0.12340252E-05  0.50119295E-06
  0.70667498E-06  0.13335580E-05  0.13628001E-05 -0.89347150E-06  0.10518922E-05
  0.98828511E-06 -0.34191846E-05 -0.95579392E-06  0.30617223E-06 -0.59131497E-08
  0.16492888E-06 -0.12441359E-05  0.57997997E-06  0.25927915E-05 -0.17999682E-05
  0.20723653E-05  0.59167892E-05 -0.13524708E-05 -0.25352112E-05 -0.27424175E-05
  0.72237043E-07  0.93072040E-05  0.10857717E-05 -0.14044688E-04  0.15742800E-04
 -0.30383531E-04  0.22296559E-04  0.79646838E-05  0.71958610E-05 -0.91741369E-06
 -0.59938454E-06 -0.22102950E-06 -0.14292869E-06  0.27401899E-05 -0.48062088E-05
 -0.11569212E-05  0.76423950E-07  0.28412961E-05 -0.41190684E-05 -0.14797521E-04
 -0.17470095E-04  0.29997299E-04 -0.94458047E-05 -0.21091897E-04 -0.42015490E-05
 -0.35077421E-04 -0.22921488E-04 -0.45067038E-06 -0.12113594E-05  0.52148760E-06
  0.18983366E-06  0.62611790E-06  0.21475852E-05 -0.33590720E-06 -0.22507335E-05
  0.88824942E-06 -0.19445535E-05  0.91576899E-05  0.10041938E-04  0.35979258E-04
 -0.18962937E-04 -0.35103489E-04 -0.45969723E-05 -0.46814751E-05  0.20425260E-04
 -0.23901433E-06 -0.23551048E-05  0.54781457E-07 -0.27618654E-06  0.88786141E-08
  0.77280024E-06 -0.90216009E-06 -0.11581238E-05 -0.21710133E-05 -0.35551739E-05
  0.18023271E-05  0.40542808E-04 -0.18362314E-04  0.28628952E-04  0.60587204E-04
  0.81585158E-05  0.22920378E-05 -0.85830042E-05 -0.92293362E-06 -0.75573208E-06
  0.26489953E-05  0.14631802E-05  0.13260032E-05 -0.77856722E-06  0.15242755E-05
  0.32133740E-06 -0.91275008E-06  0.48350616E-07 -0.52762818E-06 -0.54223162E-05
  0.17905435E-05  0.30580025E-05 -0.24244500E-05 -0.96813706E-06  0.18188694E-05
  0.55900187E-05  0.12661896E-06  0.13275732E-05 -0.27228936E-05  0.12310281E-05
  0.34342238E-06 -0.26986785E-05 -0.34525488E-06 -0.12943931E-05 -0.35619366E-06
 -0.97358817E-07 -0.32092564E-05  0.11810754E-05  0.14515125E-05 -0.29589195E-05
  0.19709738E-05 -0.13422732E-05  0.10117745E-06 -0.14062048E-05  0.26340717E-05
  0.69839760E-05 -0.47399679E-05  0.46222190E-05  0.46648421E-05 -0.18699743E-04
  0.40990679E-05  0.43263959E-05 -0.39713045E-06 -0.25615447E-04  0.41780701E-04
  0.74927241E-04  0.28172842E-04 -0.20990340E-05 -0.47047816E-04  0.51470999E-04
  0.23116545E-04 -0.11750156E-03  0.14761966E-05  0.87375264E-06  0.13278854E-05
  0.10401020E-05  0.15662131E-05 -0.26824948E-05 -0.67755226E-06  0.57363526E-06
  0.16538558E-05  0.26660990E-04 -0.11152547E-04  0.48977968E-04  0.18106052E-04
  0.15326844E-04 -0.43918946E-04 -0.24768819E-05 -0.72677169E-06  0.46820127E-05

  0.40105132E-06  0.13107949E-05  0.15362545E-07  0.43166487E-06  0.36642208E-05
 -0.40081718E-06  0.23354330E-04 -0.74037738E-08 -0.18429571E-06  0.10759025E-05
  0.28698338E-05 -0.53968165E-06  0.68017451E-06  0.23470583E-05 -0.42495557E-05
  0.25993387E-06  0.10416985E-05  0.54239139E-05  0.37317443E-04  0.64232885E-04
  0.54415681E-05  0.44592721E-04 -0.73021924E-04  0.30727674E-04 -0.14939957E-04
 -0.15068412E-05 -0.89845222E-05  0.99105098E-06 -0.81718341E-06 -0.22502161E-06
 -0.73046524E-06  0.77855288E-06  0.12196794E-06 -0.71639459E-06 -0.27537438E-06
  0.97142889E-06 -0.35601627E-05 -0.86451605E-05 -0.23712762E-05 -0.10037134E-04
  0.71802111E-04  0.59661351E-05  0.25305408E-04  0.12244696E-04  0.28430439E-04
 -0.78663059E-06  0.19679051E-05 -0.74254287E-06  0.21515336E-06 -0.32071408E-05
 -0.28066571E-07 -0.18436861E-05  0.32433234E-06 -0.12136397E-05  0.50084469E-06
  0.54524460E-06  0.14626817E-06  0.81249668E-07 -0.89969571E-08  0.67474860E-06
  0.29403415E-06 -0.49521131E-06 -0.12530142E-06 -0.11277267E-05  0.51055840E-06
 -0.21322086E-06  0.29124827E-06  0.13429678E-05  0.12022487E-06 -0.44756782E-06
  0.59466523E-06 -0.58349623E-06  0.40268670E-07 -0.59000194E-06  0.14147276E-06
  0.15132991E-05  0.12275566E-05 -0.91866532E-06  0.49130149E-06 -0.77697970E-06
  0.55491255E-06 -0.46027709E-06 -0.18111174E-05 -0.36520102E-06  0.51233365E-07
  0.52424594E-06  0.12555265E-05 -0.38074071E-05  0.23841747E-06  0.32375315E-07
 -0.24728545E-07  0.13765343E-04 -0.52546853E-05 -0.20789620E-04 -0.87450088E-05
  0.15575204E-04 -0.17908985E-05  0.36438994E-05  0.14635308E-04  0.67292900E-07
 -0.87961033E-06 -0.70975091E-06 -0.96015567E-07  0.84061000E-06 -0.32780630E-06
 -0.42170410E-06 -0.19102655E-06  0.98304177E-07  0.14399945E-04  0.11416735E-04
  0.90175369E-06  0.31426652E-04 -0.63084180E-06 -0.41832401E-05 -0.70284936E-05
 -0.45055089E-05 -0.44567632E-05 -0.59763472E-06 -0.12166842E-05  0.36013576E-07
  0.12879104E-05 -0.13534857E-05 -0.20399535E-06 -0.30544587E-06 -0.17726143E-06
  0.83730160E-06  0.12548225E-04 -0.11678260E-04  0.10724175E-04 -0.68586063E-05
  0.87546412E-05  0.52625886E-06  0.74426918E-05 -0.43188023E-05  0.12235610E-04
 -0.66991649E-06  0.10664418E-05 -0.46070288E-06  0.67976356E-06  0.41298282E-06
 -0.88590121E-06 -0.18451587E-05 -0.53697320E-06 -0.31492234E-06  0.73618134E-05
 -0.49046769E-05  0.30003152E-05 -0.69812960E-05 -0.63545662E-06  0.36324621E-05
 -0.49506861E-06 -0.48250152E-06  0.99885205E-05 -0.10815672E-05  0.22399139E-06
 -0.15522159E-06 -0.52046652E-08  0.72015603E-06  0.13317007E-05  0.17099396E-06
  0.29699400E-06 -0.11245154E-05  0.12361986E-05  0.68954743E-06  0.52774600E-06
  0.28637615E-08 -0.52146641E-06  0.34538836E-06 -0.62412358E-06  0.46856599E-06
 -0.10972692E-05 -0.69148092E-06 -0.38747693E-07 -0.19852309E-06  0.27991397E-06
 -0.14980938E-06  0.25391436E-08 -0.64021558E-06 -0.22071854E-07 -0.16100471E-05
  0.30190007E-06  0.13245106E-05 -0.10494642E-05  0.80559028E-06  0.39753925E-06
 -0.15853543E-05  0.85821430E-06  0.20725403E-05 -0.24715091E-06 -0.54184372E-06
 -0.19763956E-05 -0.69473152E-06  0.26392931E-06  0.12447147E-05 -0.34375682E-06
  0.46305427E-06 -0.69514291E-06  0.24372608E-06  0.20111078E-05  0.25767033E-06
 -0.80948325E-05 -0.23192553E-05 -0.10401082E-04  0.62857027E-05 -0.23089723E-04
  0.23225075E-04 -0.21913519E-04 -0.10159141E-05  0.11813091E-05  0.51983748E-07
 -0.75422623E-06  0.71786967E-07  0.97047608E-06  0.10098095E-05 -0.46068860E-07
  0.90104794E-06  0.86755328E-06 -0.16057039E-05 -0.15339036E-04  0.48607897E-05
  0.18563263E-05 -0.17790255E-04 -0.26448625E-04  0.14599808E-04  0.13526154E-04

 -0.16811835E-05  0.54928668E-07  0.42027697E-06  0.30389325E-05 -0.44317123E-06
 -0.14250729E-05 -0.74037738E-08  0.25136964E-04  0.18928236E-05  0.82599890E-06
 -0.36166036E-05  0.51130596E-06 -0.78455113E-06  0.43195370E-05 -0.30504460E-05
  0.21232654E-05 -0.53784276E-06 -0.36511674E-05 -0.24213008E-04 -0.28706726E-04
  0.21056114E-04 -0.70710866E-04  0.23659708E-04  0.38400520E-04  0.11225474E-04
 -0.83191259E-05 -0.26096063E-05 -0.50056374E-06 -0.12256360E-05  0.51734769E-06
 -0.11935454E-05 -0.16390898E-05  0.10530707E-05 -0.13888931E-05 -0.96717282E-06
  0.96116549E-06 -0.59047276E-06  0.17222371E-05  0.84150857E-05 -0.26853074E-04
 -0.37802754E-05 -0.96883940E-05 -0.44754318E-06 -0.17835120E-04 -0.29255840E-04
 -0.10116576E-05  0.11489543E-05 -0.54875147E-06  0.84857932E-06 -0.16685227E-06
  0.43011318E-06  0.52591038E-06  0.12431105E-05 -0.16881043E-05  0.11108741E-05
  0.47933914E-06  0.20730884E-05 -0.60194501E-06 -0.11971513E-05  0.66784128E-06
  0.19195339E-06 -0.67559976E-06  0.10938665E-05 -0.99114923E-06 -0.51444414E-06
 -0.80089316E-06 -0.34393063E-06 -0.14280450E-05  0.46479737E-06 -0.23717558E-06
 -0.96229414E-06 -0.11840010E-05 -0.59468952E-06  0.53740473E-06  0.12259395E-05
 -0.40815292E-06  0.78863166E-06  0.29514234E-06  0.12489821E-06 -0.10443490E-05
  0.15753953E-05  0.21122700E-06  0.14889526E-07 -0.35743686E-05 -0.11308912E-06
  0.49085412E-07 -0.24200945E-05 -0.40447163E-06 -0.46432071E-06 -0.34628751E-06
  0.11163602E-04 -0.10186151E-04 -0.11393461E-04 -0.27651811E-05  0.10888758E-04
 -0.19917200E-05  0.25019011E-05 -0.92952143E-05  0.20173948E-04 -0.49755465E-06
  0.22162554E-05 -0.14119103E-05 -0.32412019E-06  0.15055996E-05  0.97180160E-06
  0.30003293E-06 -0.55386779E-06 -0.30695897E-05 -0.11829146E-04  0.12365044E-04
  0.71842185E-05 -0.34462101E-04  0.83947684E-05 -0.20860149E-04  0.12191337E-05
 -0.10968560E-05  0.13306333E-04 -0.10404025E-05  0.25646189E-05  0.63484558E-06
  0.12646444E-05 -0.60314107E-06 -0.42126132E-05  0.13843217E-05 -0.25071566E-05
 -0.10188734E-06  0.22353955E-04 -0.17861462E-04  0.38710047E-05 -0.95033124E-05
 -0.16056093E-04  0.17027276E-04  0.14649607E-04  0.28171887E-05 -0.14058844E-04
 -0.60131235E-07  0.82547855E-06 -0.11346145E-05  0.11481781E-05 -0.26843744E-06
 -0.15191722E-05 -0.36399027E-06 -0.56750515E-06  0.11613222E-06  0.11728830E-04
 -0.67659931E-05 -0.63476065E-05  0.49818447E-05 -0.94243335E-05  0.15221671E-05
  0.34545252E-05  0.12009724E-04  0.12057561E-04  0.13225519E-05  0.10275804E-06
 -0.14263997E-05 -0.12481103E-05  0.12816383E-05  0.73825725E-06 -0.11948051E-05
 -0.91891087E-07 -0.41571980E-06  0.85346529E-06 -0.17239850E-06  0.87064907E-06
 -0.69866324E-06 -0.10597414E-05  0.14599670E-05 -0.35895026E-06 -0.18474527E-05
 -0.13289971E-05 -0.63603434E-06  0.12382141E-05  0.50085634E-06 -0.54430060E-06
 -0.61742029E-07 -0.85684455E-06 -0.19814776E-06 -0.10392478E-05  0.35278337E-06
  0.12559983E-07 -0.22758573E-05  0.82853455E-06 -0.68873275E-06 -0.11575386E-05
 -0.79630887E-07  0.15935932E-05 -0.72492986E-06  0.31034221E-06 -0.30533738E-05
 -0.18776068E-05 -0.14844408E-05 -0.39907021E-05  0.27042582E-06  0.52290772E-05
  0.57471850E-06 -0.36281658E-05  0.42936988E-06 -0.48551534E-05 -0.90731308E-05
  0.14958244E-04 -0.16534302E-04  0.24506412E-04 -0.60950525E-04  0.16940712E-05
  0.25629955E-04  0.12330446E-04 -0.13959474E-05 -0.11492018E-05  0.67854677E-06
  0.84922592E-06 -0.79786391E-06  0.26328666E-06 -0.38913866E-06 -0.41195327E-06
 -0.49017247E-06  0.58562470E-05  0.29547491E-05  0.11035247E-04 -0.12529531E-04
  0.12688010E-04 -0.17009401E-04  0.15376865E-05 -0.40027293E-05 -0.65219830E-05

 -0.97218355E-06  0.25356915E-06 -0.72317144E-07 -0.23349364E-05  0.38353676E-05
  0.68163409E-06 -0.18429571E-06  0.18928236E-05  0.32716728E-04 -0.10073153E-05
 -0.23414903E-05  0.37261146E-05  0.15593425E-06  0.29166131E-05 -0.12025539E-05
  0.40313581E-05 -0.12308523E-05 -0.50902152E-05 -0.16049688E-04 -0.36886470E-05
  0.23595803E-04 -0.84966664E-05  0.19360820E-04 -0.72085542E-06  0.33370959E-04
  0.12152917E-04  0.91100634E-05  0.19500980E-06  0.38484223E-06  0.74313326E-06
 -0.43995213E-06 -0.33256682E-05  0.14452269E-05  0.79139281E-06 -0.97272550E-06
 -0.16060451E-05  0.43453835E-05  0.22111391E-04  0.26570797E-05 -0.49388556E-05
 -0.49131273E-05  0.46835022E-04 -0.10161443E-04  0.24062094E-04 -0.58600504E-05
 -0.50489860E-06 -0.84655099E-06  0.37951098E-06  0.37705234E-06  0.61604598E-06
 -0.13598605E-05 -0.23858421E-06 -0.16893358E-05 -0.11575797E-05  0.56550203E-06
  0.17229737E-05  0.55534398E-06 -0.14903372E-05  0.11677503E-05  0.22618634E-05
 -0.70787768E-06 -0.23581406E-06  0.70580216E-06  0.50859531E-07  0.54126336E-06
  0.73929444E-06 -0.64280421E-06  0.38462489E-06  0.17825613E-05 -0.45675851E-06
  0.83340412E-06 -0.15023276E-06  0.94329108E-07  0.13303657E-05  0.49256789E-06
  0.11036389E-06 -0.30971559E-06 -0.58397129E-06  0.10961401E-05  0.17125580E-05
 -0.58035054E-07 -0.15983339E-06  0.31860888E-06  0.24914927E-05  0.94152333E-06
  0.21670919E-05 -0.20102532E-05  0.51741401E-06  0.19325715E-05 -0.30101093E-05
 -0.17054222E-04 -0.56881647E-05  0.18876873E-04 -0.74234894E-05 -0.20617100E-06
  0.30772765E-04  0.35188304E-05 -0.74020753E-05 -0.13851139E-04 -0.30896576E-05
 -0.17621362E-05 -0.31612120E-06 -0.14316024E-05  0.20799154E-05  0.78923337E-06
  0.35028182E-06  0.41579744E-06 -0.11015002E-05  0.18562278E-04 -0.51986795E-05
 -0.60009064E-05 -0.30544081E-06  0.28475591E-04 -0.40507116E-04  0.13671725E-04
  0.21724381E-04 -0.86198634E-05  0.10059789E-05  0.25599506E-05  0.41038548E-07
  0.11511440E-05 -0.80969735E-06 -0.13034381E-05  0.28456133E-07 -0.17587097E-06
 -0.20118154E-05  0.56338069E-05  0.24968338E-04 -0.79577445E-05 -0.10332278E-04
 -0.34326884E-04  0.28200556E-05  0.52129500E-05 -0.52635398E-05  0.51634206E-05
 -0.15935823E-06 -0.14024855E-06 -0.44389135E-06 -0.73716241E-06  0.48364795E-06
  0.45462991E-06 -0.52281924E-06 -0.36696779E-06  0.93517620E-07 -0.17131252E-05
  0.65069406E-06 -0.59463545E-05  0.15471790E-04 -0.26455995E-04 -0.23154395E-04
  0.39817271E-05 -0.17104564E-05 -0.43552823E-05 -0.88451512E-06  0.57037017E-06
 -0.10197162E-05 -0.47448773E-06  0.10970925E-05  0.65574559E-06 -0.12445075E-05
  0.38116834E-06  0.69314970E-06  0.90972702E-06 -0.23649399E-05  0.20166063E-05
  0.18275834E-05 -0.48836436E-05 -0.22925633E-06 -0.13556250E-05 -0.11431856E-05
  0.62591097E-06 -0.63330346E-07  0.10440874E-05 -0.80043166E-06 -0.12089792E-05
  0.17488477E-06  0.14441447E-05 -0.79091021E-06 -0.12576218E-06 -0.17196868E-06
 -0.19833387E-05 -0.42331884E-05 -0.39153130E-05  0.30830480E-05 -0.23521859E-05
 -0.18701371E-05 -0.24164886E-06 -0.17430211E-05 -0.44355613E-05 -0.14648473E-05
 -0.11956606E-05 -0.28120443E-05 -0.11806238E-05  0.39890001E-05 -0.18124639E-05
 -0.10736408E-06 -0.96983416E-06 -0.41303536E-05 -0.11682590E-04 -0.27523248E-05
  0.93147226E-04  0.21943682E-04  0.44780070E-04 -0.27902552E-03 -0.81891651E-05
  0.47837494E-04 -0.40258563E-04  0.43581014E-06  0.12278249E-05 -0.55697074E-06
  0.92994525E-06 -0.12387234E-05 -0.15914134E-05 -0.15672329E-06  0.95076168E-06
 -0.11172172E-05  0.85471262E-05  0.19648864E-04 -0.21232979E-05  0.11090222E-04
  0.12274201E-04  0.23098164E-05  0.12786395E-04 -0.14963091E-04 -0.15130439E-04

  0.16296067E-06  0.43175749E-05 -0.61949184E-06 -0.10528934E-05  0.46125071E-05
 -0.45101177E-06  0.10759025E-05  0.82599890E-06 -0.10073153E-05  0.33065248E-04
  0.35818280E-05  0.47279682E-05  0.14428846E-05 -0.10395380E-05 -0.79174893E-06
  0.39390275E-05  0.40898633E-05  0.10035343E-05 -0.27777718E-04  0.69864013E-04
  0.11678584E-04  0.18738228E-03 -0.84884626E-04  0.70545441E-05  0.11428955E-03
  0.28180894E-04 -0.22359525E-04 -0.71056171E-06  0.31321288E-06  0.31071429E-05
 -0.58886591E-06  0.23387368E-05 -0.15684182E-05  0.14577333E-05 -0.31344358E-05
  0.12167453E-05 -0.27976149E-05  0.94087031E-05 -0.13322279E-04 -0.18173507E-04
  0.31515563E-04  0.24534327E-04 -0.85515573E-05 -0.11122285E-04  0.19942100E-04
 -0.22607489E-05 -0.35169956E-05 -0.74743778E-06 -0.61238165E-07  0.85648166E-06
 -0.20654759E-05  0.14749909E-07  0.70955245E-06 -0.14569609E-06  0.50689615E-06
  0.39066340E-06 -0.92946367E-08 -0.28937775E-05  0.73597308E-06  0.52349826E-06
  0.19762500E-06 -0.30351813E-06 -0.56768079E-06  0.12362755E-05  0.13754999E-05
  0.78599292E-06 -0.16412452E-05 -0.86707247E-06 -0.60949268E-07 -0.20280676E-06
 -0.60862557E-06 -0.52478616E-06  0.14723807E-05 -0.18984599E-05 -0.41671601E-06
  0.16666095E-05 -0.75512648E-06 -0.70462191E-06  0.16367876E-05  0.45759459E-06
 -0.23644722E-06 -0.37428880E-06 -0.56142976E-06  0.14929019E-05  0.11302149E-05
  0.22932898E-07 -0.24067149E-05 -0.86870047E-06  0.82397555E-06  0.21967599E-05
 -0.35302607E-05 -0.11270227E-04  0.12821637E-04  0.22408553E-04 -0.27536617E-04
  0.21421476E-04  0.38475173E-05 -0.46601134E-05  0.11348178E-04 -0.14369015E-05
 -0.45536675E-05  0.11081736E-05 -0.27407371E-05 -0.13037415E-05  0.18403881E-05
 -0.90338557E-06  0.13675685E-06  0.82874923E-06 -0.93435854E-05 -0.17739630E-04
 -0.79329823E-05  0.37917621E-04 -0.96617758E-05 -0.35578282E-04  0.50277630E-05
 -0.46313680E-05 -0.13660838E-04  0.17221450E-05  0.69913922E-06  0.13397327E-05
 -0.93426659E-07 -0.13419013E-05  0.29376403E-06  0.80814277E-06 -0.97225092E-06
  0.79958622E-06 -0.18449595E-04  0.73627284E-05 -0.85319840E-05 -0.37022478E-04
  0.26106245E-04  0.26489525E-06 -0.85635435E-05 -0.34539898E-05 -0.56658215E-05
 -0.41752801E-07  0.23673658E-06  0.26829144E-06  0.16411009E-05 -0.19332053E-05
  0.11739974E-05 -0.65272527E-06  0.30709320E-06 -0.50374118E-06 -0.10488068E-04
  0.44242507E-05 -0.15112842E-04  0.14831353E-04 -0.27575572E-04 -0.15011888E-04
 -0.12513604E-06  0.16289057E-05 -0.80970219E-05 -0.85841240E-06 -0.33308609E-05
  0.16550672E-06  0.40753378E-06  0.21863644E-06 -0.57672493E-06  0.11261238E-05
 -0.60545751E-06  0.22261368E-06  0.56677795E-06  0.51150842E-06  0.39336413E-06
 -0.14195711E-05 -0.17908952E-05  0.27558928E-05  0.15414444E-06  0.12954399E-05
  0.12532957E-05 -0.47031258E-06  0.36678629E-06 -0.17535587E-06 -0.83962434E-06
  0.15250266E-05  0.24608009E-06  0.10276258E-05  0.11159667E-06  0.12864998E-05
 -0.69543109E-06 -0.14717009E-05 -0.12124869E-05 -0.16555996E-06 -0.10422930E-05
  0.23244787E-05 -0.40744818E-06  0.28509596E-07 -0.23611504E-05 -0.21136548E-05
 -0.73450445E-06 -0.17449482E-05  0.12735193E-05  0.35862248E-05 -0.85826670E-06
  0.22400038E-06  0.22572171E-06 -0.67612588E-06  0.11173402E-04 -0.43714085E-04
 -0.51130225E-04  0.60691967E-04  0.30554221E-04 -0.76249038E-04 -0.25800651E-05
 -0.12707160E-04 -0.67456937E-05  0.13652270E-05 -0.57357601E-06 -0.40472521E-06
  0.15799905E-05 -0.90653629E-06 -0.23322079E-06 -0.11188335E-05  0.41360029E-06
 -0.38532465E-06 -0.10828758E-04  0.17179565E-04  0.12108273E-04  0.36666408E-04
 -0.76937201E-05 -0.23574466E-04  0.26868119E-05 -0.83974354E-05  0.11655235E-04

  0.36121641E-05  0.39762458E-06  0.23775472E-05 -0.27183705E-05 -0.26173158E-06
  0.13758577E-05  0.28698338E-05 -0.36166036E-05 -0.23414903E-05  0.35818280E-05
  0.68368718E-04  0.10967028E-04 -0.70654969E-05  0.73325744E-05 -0.81052232E-05
  0.28191476E-05  0.10838626E-07  0.59555806E-05  0.21847680E-03  0.28402650E-03
  0.16004458E-03  0.47919399E-03 -0.11626267E-03 -0.60376562E-04 -0.14147138E-03
 -0.13266347E-03 -0.17975554E-03 -0.23242289E-05  0.42701102E-05  0.30593474E-05
  0.16367765E-05 -0.48026292E-05  0.72536105E-05 -0.48744627E-05 -0.23371989E-06
  0.19747641E-05  0.10841679E-04  0.21207803E-04 -0.19480516E-06  0.41531405E-04
 -0.95084143E-04  0.15367167E-04 -0.34635218E-05  0.19027764E-04 -0.13212574E-04
  0.11346108E-05  0.69306352E-05 -0.11195547E-05 -0.28737083E-06  0.76844060E-05
 -0.37851408E-05  0.35083794E-05  0.92180159E-06  0.46386680E-06  0.25685977E-06
  0.36090909E-05  0.29268238E-05  0.21697377E-05  0.10222991E-05  0.15817977E-05
  0.78961390E-07  0.21257811E-05  0.14693005E-05  0.70548911E-06 -0.37369294E-05
  0.25208140E-05  0.18799882E-05  0.38010337E-05  0.34645340E-05 -0.13809030E-05
  0.51289247E-06  0.20507440E-05  0.10392434E-05  0.10832361E-05  0.14526338E-05
  0.19448186E-05 -0.22730714E-05  0.60941457E-06 -0.66305485E-06 -0.69009326E-06
  0.89115903E-06  0.50213152E-06 -0.15804598E-05 -0.12682651E-05  0.62004675E-06
 -0.14018983E-05 -0.16010398E-05 -0.58176820E-06 -0.13186268E-05  0.42094149E-05
 -0.45175348E-05  0.40335017E-04  0.77464719E-05 -0.92995287E-05  0.52079849E-04
 -0.16948084E-04 -0.48401996E-05 -0.19408059E-04  0.18039517E-04 -0.65721958E-06
 -0.29854783E-06 -0.13948007E-06 -0.24943330E-06  0.10531509E-05  0.83615534E-06
 -0.64921317E-07  0.11147866E-05  0.24525331E-05  0.28988456E-04 -0.23987059E-04
 -0.65334088E-05  0.29399880E-04  0.37370887E-04  0.28251222E-04 -0.11369011E-04
  0.49888380E-04 -0.20120030E-04 -0.23037706E-05  0.27785813E-05 -0.97913872E-06
  0.10418327E-05  0.71896589E-05  0.12399749E-05  0.16554156E-05  0.10133848E-06
  0.15112341E-05  0.14363450E-04 -0.26051000E-04  0.22753267E-04  0.78228653E-05
  0.88699553E-05  0.77774023E-05  0.30174868E-04 -0.16372685E-04  0.22252157E-04
 -0.20035114E-05 -0.17437772E-06  0.22070302E-05  0.28537575E-05  0.59642280E-06
  0.22857799E-06  0.10730471E-05  0.32117341E-06 -0.14000180E-05  0.14454704E-04
  0.73484864E-05  0.53860160E-05 -0.21722839E-04  0.75488311E-05 -0.25632932E-04
 -0.42102468E-05  0.13867168E-04  0.22479863E-04  0.24536630E-05  0.26893940E-06
  0.42034042E-06  0.98624928E-06 -0.79926225E-06 -0.29456407E-06  0.16508491E-05
  0.70780806E-06 -0.20743760E-05 -0.65975839E-06 -0.92890126E-06 -0.14568517E-06
  0.51216035E-06  0.32449737E-05  0.51853454E-06 -0.11328467E-05  0.56021025E-06
  0.12175458E-05 -0.66952724E-06 -0.11833613E-05  0.16159858E-05  0.13308625E-05
  0.25789795E-05  0.19078135E-05 -0.27271803E-06  0.12801508E-05 -0.29941755E-06
 -0.81807355E-06 -0.24928096E-05 -0.17055620E-05  0.25929841E-05 -0.19803310E-06
 -0.38965741E-06 -0.63050909E-06  0.22293576E-05  0.14159050E-05  0.79983612E-05
  0.99951533E-06  0.10735672E-05  0.26996247E-05  0.99727751E-06  0.11474652E-06
  0.42660741E-05 -0.46489689E-06  0.11571519E-05 -0.40702829E-04  0.77411623E-04
  0.79322773E-04 -0.69447654E-06  0.17224722E-04  0.27921367E-04  0.75755928E-04
  0.38300172E-05 -0.30648061E-04 -0.13070122E-05  0.81540848E-06  0.38259269E-07
  0.15527984E-05 -0.64451627E-06  0.62763450E-06  0.11351568E-05 -0.42158005E-06
  0.16470955E-05  0.26549145E-04 -0.32221639E-05 -0.74769295E-05 -0.43333085E-04
 -0.13053244E-04  0.10841057E-04 -0.30467328E-05 -0.19196526E-04 -0.16986458E-04

  0.61418981E-06 -0.77717493E-06  0.16848668E-06  0.95751782E-06  0.16122713E-05
 -0.23568404E-05 -0.53968165E-06  0.51130596E-06  0.37261146E-05  0.47279682E-05
  0.10967028E-04  0.60397873E-04 -0.35520144E-05 -0.14884737E-05  0.48439298E-05
  0.33227942E-05  0.32633953E-05  0.61896583E-05  0.80393120E-04  0.20849569E-03
  0.10239335E-04  0.23811244E-03 -0.31856140E-03  0.13586050E-03 -0.12781143E-03
  0.17011818E-04  0.57889051E-04  0.10854633E-05  0.60747470E-06  0.80242471E-05
 -0.20441187E-05 -0.20046929E-05  0.54689985E-06 -0.55620094E-06 -0.51989548E-05
  0.25416809E-05 -0.20619573E-04  0.14334787E-04  0.72782642E-06 -0.40407380E-05
  0.41295828E-05  0.54079464E-04  0.29640105E-04  0.24937788E-04  0.18453614E-05
 -0.24613931E-05 -0.95791786E-06 -0.63232851E-06  0.23574905E-05 -0.11507459E-05
 -0.27897816E-05  0.16041263E-06 -0.25027195E-05 -0.14775623E-05 -0.28267771E-06
  0.15389863E-05  0.11582654E-05  0.10681866E-05  0.47966633E-05 -0.30869257E-05
 -0.16349559E-05  0.13805798E-05  0.28931744E-05  0.93225181E-06  0.33265858E-06
  0.24922820E-05 -0.19113360E-05  0.51259592E-06  0.51463374E-05 -0.95993626E-06
 -0.71112951E-06 -0.11458853E-05 -0.65655169E-07 -0.26492195E-07  0.25957359E-05
  0.14980250E-05 -0.23864514E-05  0.22534853E-05 -0.63110923E-06  0.96055833E-06
 -0.19312834E-06  0.27516463E-05  0.18827521E-05  0.12504183E-05  0.12838360E-05
  0.94209067E-06 -0.46995435E-05  0.24382344E-05 -0.37272504E-05  0.26261404E-05
 -0.11980163E-04 -0.43659571E-05 -0.46314550E-04  0.15791457E-04 -0.15321515E-05
  0.24451567E-04  0.15181978E-04 -0.21732145E-05 -0.82763877E-05 -0.10278539E-06
 -0.95988355E-06 -0.57115902E-07  0.10118946E-05  0.36688458E-05 -0.36124545E-06
  0.25734573E-06  0.29433609E-05 -0.21453342E-05  0.25972403E-04 -0.97534009E-05
 -0.52754254E-04  0.18610214E-04  0.25645632E-04 -0.62855048E-04  0.29805355E-05
  0.19913111E-04 -0.65338205E-05  0.22022782E-05  0.38929062E-05 -0.43826641E-07
 -0.95944987E-06  0.17727714E-05  0.63006612E-06  0.24391128E-05 -0.20747764E-05
 -0.27523486E-05  0.20145675E-04  0.18026900E-04 -0.81504444E-04 -0.27431911E-04
 -0.40731213E-04  0.50744114E-04  0.18191606E-04 -0.33841427E-04 -0.41434951E-05
 -0.29669558E-06  0.40415349E-05 -0.11282915E-05  0.27100229E-05 -0.19474528E-05
  0.14031376E-05 -0.44921850E-06  0.35313376E-05 -0.21115649E-05  0.43187856E-05
  0.14620779E-04 -0.49132298E-04  0.10032976E-05 -0.16953148E-04 -0.36582453E-04
 -0.11699146E-04 -0.10504760E-04  0.13949193E-04  0.13993729E-05 -0.22054201E-05
 -0.23146591E-05 -0.15006610E-05  0.30596735E-05 -0.12227027E-06  0.43872398E-06
  0.55044110E-06  0.44991090E-06  0.17729048E-05 -0.21735927E-05  0.75466605E-06
  0.13672595E-05 -0.12688828E-05  0.43664008E-05  0.12254776E-05  0.12742947E-06
 -0.18480963E-06 -0.40188772E-06 -0.49809277E-07 -0.24400460E-05  0.10834693E-06
  0.15002911E-05  0.56008790E-06  0.12964898E-05 -0.22855884E-06  0.22098141E-05
 -0.25870255E-05  0.89300192E-06  0.67311231E-07  0.16054584E-05  0.67251073E-06
 -0.32468052E-06 -0.27512769E-05  0.18492178E-05 -0.60239032E-06 -0.28772746E-05
 -0.29545014E-05 -0.66399675E-06 -0.13284398E-06  0.48110876E-05 -0.39965860E-06
  0.21930632E-05 -0.31824893E-05 -0.23029082E-05 -0.16158694E-04 -0.34725109E-04
  0.73938344E-04  0.23041612E-04  0.60496342E-04 -0.26006754E-03 -0.16492490E-04
  0.44705343E-04 -0.91427160E-05 -0.37746017E-06  0.22620839E-05  0.46071632E-06
  0.27694426E-05 -0.29011104E-05 -0.11747708E-05  0.10259726E-06  0.17106500E-05
 -0.12009672E-05  0.19588435E-04  0.16361011E-04  0.26571089E-04 -0.48452771E-04
  0.16985817E-04  0.33244659E-04  0.15244736E-04 -0.30955109E-04 -0.13489313E-04

  0.14110411E-06 -0.42220133E-05 -0.75297234E-06  0.32463508E-05  0.79045490E-06
 -0.63656373E-06  0.68017451E-06 -0.78455113E-06  0.15593425E-06  0.14428846E-05
 -0.70654969E-05 -0.35520144E-05  0.45949176E-04 -0.20162899E-04 -0.14604115E-04
  0.89363319E-06  0.42650585E-05 -0.50664263E-05 -0.91179019E-04 -0.10422659E-03
 -0.22775877E-04 -0.16669576E-03  0.65722172E-04  0.20169327E-04  0.12453959E-03
  0.27122273E-04  0.24182563E-04 -0.13360870E-06  0.22259077E-05  0.17467050E-05
 -0.22068160E-05  0.30901917E-05  0.36959812E-05  0.16750276E-05 -0.95061142E-06
  0.19298161E-05  0.23543183E-04  0.22612198E-04  0.27940146E-04  0.27238645E-04
 -0.41865041E-04 -0.28982108E-04 -0.28662858E-04 -0.15108823E-04 -0.25709588E-04
  0.59004590E-06 -0.11726806E-05  0.77192176E-06  0.21232166E-05 -0.19423270E-05
 -0.86145906E-06 -0.56837245E-06 -0.56213953E-06 -0.18626447E-06  0.12155999E-05
 -0.25672865E-06  0.32425348E-06 -0.23061189E-05  0.23495223E-05  0.74617688E-06
  0.79106443E-06 -0.81667730E-07  0.67147966E-06 -0.21148649E-06  0.18102099E-05
  0.45120394E-06 -0.93116377E-06  0.96723630E-06  0.13004578E-05 -0.28391647E-06
 -0.71470393E-06 -0.95259383E-06 -0.90544900E-07 -0.16123847E-05 -0.16191352E-07
  0.85953565E-06  0.53396293E-06  0.45659391E-06  0.12931164E-05  0.49227494E-07
  0.47536400E-06  0.97537762E-06 -0.50945967E-06 -0.88140146E-06  0.98593253E-07
  0.18197346E-06  0.81610195E-06  0.12236660E-05 -0.71883592E-06 -0.18569270E-05
  0.10748276E-05  0.16922196E-04 -0.10873331E-04  0.28039895E-04 -0.84893468E-05
 -0.39891286E-04 -0.60913971E-05  0.10164277E-04  0.96843244E-06  0.32048299E-06
 -0.10708381E-05  0.86991098E-06  0.15589886E-05  0.18798240E-06  0.12869824E-05
  0.13984113E-05 -0.23538490E-06 -0.13120955E-05 -0.14072735E-04  0.73885161E-05
 -0.10240448E-04 -0.32579894E-04  0.96960498E-05 -0.95022341E-05  0.14938472E-04
 -0.18471828E-04 -0.92293491E-05  0.22879873E-05 -0.15585289E-05 -0.57004261E-06
 -0.35402565E-05  0.19419284E-05 -0.22524769E-05 -0.19315926E-06  0.28084258E-06
 -0.45906733E-06 -0.21210207E-04 -0.55945568E-05 -0.94200204E-05  0.53916841E-04
  0.19641736E-04 -0.12865473E-04 -0.42702232E-04  0.24457224E-05  0.14542449E-04
  0.44526140E-06 -0.35434125E-07 -0.17611797E-05  0.55696682E-07 -0.10413681E-05
  0.64099292E-06 -0.39858730E-06  0.22398513E-06  0.48032845E-06 -0.10300245E-04
 -0.68622805E-05  0.30539895E-06  0.97091165E-06  0.38399527E-05  0.67956055E-05
  0.12263527E-04 -0.23214182E-05  0.17761489E-04  0.12308415E-05 -0.17956931E-06
 -0.11664175E-05  0.76327690E-06  0.95920825E-06 -0.72869024E-06 -0.12475051E-05
 -0.13929630E-05  0.78449098E-07  0.15163049E-05  0.12153701E-05  0.86903127E-06
 -0.25696347E-05 -0.11550563E-06  0.27093737E-05  0.94777670E-06  0.83466524E-06
 -0.70356716E-06  0.63083706E-06  0.15116433E-05  0.14794130E-06 -0.17356371E-05
  0.17167113E-05  0.79098929E-06 -0.11773576E-05 -0.58988951E-06  0.33271141E-06
  0.14380832E-05  0.29671589E-06  0.14410558E-06 -0.17292032E-05 -0.45273079E-07
 -0.95462412E-07 -0.14916430E-06 -0.10633087E-05  0.19525845E-07 -0.13583440E-05
  0.12801934E-05 -0.33191978E-06 -0.62650989E-05  0.47249301E-05  0.77749282E-06
 -0.25954896E-05 -0.13415471E-06 -0.42582568E-06 -0.33237855E-04  0.40625668E-04
 -0.12864811E-04  0.22361975E-04 -0.11432244E-05 -0.25757718E-04 -0.19934146E-04
 -0.41183382E-04 -0.42033382E-05  0.16874969E-05  0.11774186E-05  0.13635389E-05
 -0.82968261E-06  0.19530360E-05  0.79191895E-06  0.17908076E-06  0.67754226E-06
  0.21900753E-06 -0.82505871E-05  0.12034070E-04  0.98343660E-05  0.37334428E-04
 -0.73854309E-05 -0.44947636E-06 -0.97325159E-05  0.13418463E-04 -0.96628053E-05

 -0.15532546E-05  0.56291750E-05  0.17137216E-05 -0.27886862E-05  0.61153527E-05
  0.65037496E-06  0.23470583E-05  0.43195370E-05  0.29166131E-05 -0.10395380E-05
  0.73325744E-05 -0.14884737E-05 -0.20162899E-04  0.82453503E-04 -0.26518549E-04
  0.37853788E-05 -0.20247338E-05  0.20721272E-05  0.12082677E-03  0.10877659E-03
  0.12884814E-03  0.18899173E-03  0.22248224E-03 -0.80640853E-04 -0.48179546E-04
 -0.11484300E-03 -0.14690267E-03 -0.20950930E-05 -0.23217158E-05  0.22558288E-05
  0.47794690E-05 -0.14686649E-04  0.59355968E-05 -0.28836625E-05  0.11198686E-05
  0.40618816E-05 -0.33675698E-05  0.70480270E-05  0.29639042E-04 -0.20608485E-04
  0.94118196E-04  0.12127483E-04 -0.17884292E-05 -0.35753351E-04  0.35441110E-04
  0.96895571E-06  0.38493492E-05 -0.76217532E-06 -0.16998639E-05  0.44399495E-05
  0.85092874E-07  0.78058914E-06  0.10635772E-05 -0.25021680E-05 -0.12037988E-05
  0.12731316E-05  0.98305807E-06  0.37358234E-05 -0.42365880E-05  0.20549098E-05
 -0.73157318E-06  0.10520619E-06  0.31748155E-05 -0.84276604E-06 -0.12316299E-06
 -0.66127091E-06  0.28877673E-05 -0.25234889E-05  0.10740956E-05  0.60368301E-06
  0.71360148E-06  0.20511190E-06  0.80886047E-06  0.13554496E-06 -0.31776375E-06
 -0.69997968E-06  0.39984782E-05 -0.21561713E-05  0.15211931E-05 -0.49659483E-06
 -0.12371316E-05  0.25075542E-05  0.21454120E-05 -0.25346486E-05 -0.45114390E-06
 -0.25475189E-05  0.15401047E-05 -0.22998029E-05  0.48765723E-07  0.20177232E-05
 -0.12935389E-05 -0.68283810E-06 -0.76392726E-05 -0.16525990E-04  0.64943725E-04
 -0.13729363E-04 -0.16101921E-04  0.23067642E-04  0.24947764E-04 -0.24975828E-05
  0.21187971E-05  0.21832301E-05 -0.67791531E-06  0.34632995E-05 -0.87990780E-06
  0.39698053E-05 -0.22510007E-06  0.23291755E-07  0.34095757E-04 -0.38046198E-05
 -0.20717793E-04  0.69819794E-04 -0.27393053E-04 -0.88901820E-05  0.94154986E-05
  0.42909142E-04  0.23291280E-04 -0.28564772E-05  0.49691047E-05  0.20077948E-05
  0.43830993E-05 -0.81351022E-05  0.37982754E-05 -0.30346163E-05 -0.86312962E-06
 -0.44798851E-05  0.16008823E-04 -0.20483706E-04 -0.25696355E-04 -0.16386014E-04
 -0.87591664E-04  0.14506920E-04  0.42814895E-04 -0.97332344E-05 -0.18675922E-04
  0.16290924E-05  0.34760683E-06  0.21413569E-05 -0.16656917E-05  0.61723496E-05
 -0.14295958E-05 -0.24100396E-06 -0.40695418E-06 -0.43892233E-05 -0.32152424E-05
  0.11836232E-05  0.11608470E-04 -0.90202486E-05  0.35638732E-05 -0.32021814E-05
  0.61854064E-05  0.10508626E-04 -0.12436109E-04 -0.17678084E-06 -0.66053021E-06
 -0.64814000E-06  0.21685627E-05 -0.26265183E-05  0.20655692E-05 -0.38781375E-05
 -0.11483079E-06 -0.37317717E-06 -0.15101081E-05 -0.80168397E-06 -0.31921673E-05
  0.32959939E-06  0.16311552E-07  0.32366123E-05 -0.37901350E-05 -0.16186568E-05
  0.33828568E-05  0.36800829E-06 -0.28311302E-05  0.17954790E-06  0.31471052E-06
  0.20809831E-05  0.48964792E-06 -0.23501905E-06  0.13046801E-06  0.15090588E-05
 -0.13654435E-05 -0.40537648E-05 -0.10169574E-05  0.97427249E-06  0.44296567E-06
  0.62443172E-06  0.17540723E-05  0.12018041E-05 -0.12935083E-05 -0.34314557E-05
  0.31108529E-06 -0.52606613E-05  0.60007171E-05 -0.45579601E-05  0.12936925E-05
  0.23931922E-05 -0.16294428E-05 -0.22507695E-05  0.13300783E-05 -0.97867763E-04
  0.23910650E-04 -0.10204312E-04  0.74137205E-04 -0.98545390E-04 -0.46053394E-04
  0.14264126E-04 -0.15123221E-04 -0.46434175E-06 -0.40876066E-05 -0.29682207E-05
  0.13277270E-05 -0.61407143E-05  0.14452720E-05 -0.12898516E-06 -0.20408667E-06
  0.16666389E-05  0.27322640E-04 -0.29708232E-04  0.43718244E-05 -0.69208861E-07
 -0.14959054E-04  0.30445080E-04 -0.25259819E-04 -0.28223895E-04 -0.19826396E-04

 -0.11439855E-05 -0.37306048E-06 -0.46021560E-06  0.23553832E-06 -0.31513478E-05
 -0.52966227E-06 -0.42495557E-05 -0.30504460E-05 -0.12025539E-05 -0.79174893E-06
 -0.81052232E-05  0.48439298E-05 -0.14604115E-04 -0.26518549E-04  0.79936753E-04
 -0.41461032E-05 -0.69678032E-06  0.43943287E-05 -0.12899789E-04 -0.30058186E-04
 -0.13849787E-03 -0.90262978E-04 -0.60033600E-04  0.51826270E-04  0.36506363E-06
  0.10861218E-03  0.25284712E-03  0.27240345E-05 -0.11438000E-05  0.95760155E-07
  0.21040931E-05  0.85156925E-05 -0.18584126E-04  0.36106032E-05 -0.24957830E-05
 -0.84944344E-05 -0.13750337E-04 -0.16952247E-04 -0.54256714E-04  0.72697276E-05
  0.23588195E-04 -0.18851974E-04  0.34410815E-04  0.47437863E-04  0.36593756E-05
 -0.11149742E-05 -0.36357961E-05 -0.31158693E-05 -0.93985359E-06 -0.14491691E-05
  0.18932106E-05 -0.11330593E-05 -0.11965169E-05  0.92331181E-06 -0.16522404E-05
  0.94172482E-06 -0.41543398E-05  0.16687490E-05 -0.60407118E-07 -0.59218293E-05
 -0.63977959E-06  0.14003424E-05 -0.31385753E-05 -0.18165525E-06 -0.16940365E-05
 -0.66226574E-06  0.31904209E-06  0.11378019E-05 -0.31190172E-05 -0.27652925E-06
 -0.49791690E-06 -0.16171486E-07  0.13234619E-05  0.30274984E-05 -0.15072928E-06
  0.14039447E-05 -0.43098863E-05  0.58818149E-05 -0.87082921E-06  0.50988432E-06
  0.10172422E-05 -0.30511830E-05  0.56742228E-08 -0.15751624E-05  0.42907445E-06
  0.69145149E-06  0.28841164E-06  0.10259319E-05 -0.19117283E-06 -0.71720842E-06
  0.13055875E-05 -0.16838716E-05  0.18121774E-04 -0.23953027E-04 -0.20473122E-04
  0.79446976E-04  0.90368358E-05 -0.17407590E-04 -0.24164537E-05  0.23112707E-05
 -0.58042486E-06 -0.86083076E-05  0.86861308E-06 -0.27379796E-05  0.28266472E-05
 -0.23457968E-05  0.11530014E-05  0.21369869E-05 -0.17816373E-05 -0.38759847E-04
  0.50256413E-04  0.10230261E-04 -0.17160330E-04  0.24168644E-04 -0.37863368E-05
 -0.56201931E-04 -0.11095452E-04  0.21782437E-05 -0.16018272E-05 -0.11411440E-05
 -0.16600065E-05  0.30232214E-05  0.13382107E-05  0.18601667E-05 -0.23101311E-05
 -0.88167762E-07  0.10125374E-05  0.35246298E-05  0.50214177E-05  0.17737753E-06
  0.36029269E-04  0.13716301E-05 -0.10318049E-05 -0.36064313E-05  0.13305635E-04
 -0.27647727E-05 -0.85772868E-06  0.51713884E-05  0.31671839E-06 -0.48902775E-05
  0.58364783E-05  0.12195568E-05 -0.38428902E-06 -0.18208414E-07  0.13352940E-04
 -0.42932675E-06  0.29277497E-04  0.22454486E-04  0.16573892E-04 -0.44371469E-04
 -0.17594849E-04  0.68133783E-05 -0.24121072E-05 -0.96609100E-06  0.12922920E-05
 -0.13781476E-05 -0.14532914E-05  0.21292485E-05 -0.46719999E-05  0.18100484E-05
  0.48874179E-06  0.86100826E-06 -0.16612835E-06 -0.72869893E-06  0.30659384E-05
  0.21105896E-05  0.26741252E-05 -0.78689023E-05  0.79667612E-06  0.43899659E-06
  0.18399706E-05 -0.85772172E-06 -0.92227846E-06  0.79876378E-06  0.13710176E-05
 -0.15459204E-05 -0.25605185E-06  0.14596226E-05  0.56355202E-07  0.37682389E-07
 -0.20149711E-05  0.26115914E-05  0.17561667E-05 -0.11916449E-05  0.12371098E-05
  0.82122728E-06 -0.20697844E-05 -0.57765167E-06  0.91134966E-06  0.67772592E-05
  0.32431203E-05  0.62197233E-06 -0.11799521E-05 -0.31426352E-06 -0.10973315E-05
  0.16667237E-05  0.17246962E-05  0.16245246E-05 -0.11895381E-04  0.44799270E-04
  0.63869374E-04  0.30722652E-04 -0.50083127E-04  0.48546366E-04  0.34098613E-04
 -0.22543064E-04 -0.23440594E-04  0.51543008E-06  0.15153326E-05  0.15231052E-05
 -0.38739020E-06  0.16379913E-05 -0.85224004E-06 -0.95436945E-06  0.21580467E-06
 -0.17018218E-05 -0.19299102E-04  0.10986340E-05 -0.28103778E-04 -0.12272663E-04
  0.14385233E-04 -0.22103373E-04  0.13763858E-04  0.17469484E-05 -0.25436326E-06

 -0.49738756E-06 -0.17424542E-05  0.10874099E-05  0.19729304E-05 -0.22210383E-06
 -0.23829016E-05  0.25993387E-06  0.21232654E-05  0.40313581E-05  0.39390275E-05
  0.28191476E-05  0.33227942E-05  0.89363319E-06  0.37853788E-05 -0.41461032E-05
  0.29686493E-04  0.21365130E-05  0.20550525E-05 -0.76886221E-04  0.54267932E-04
  0.38261472E-04  0.25370716E-03 -0.69739714E-04 -0.41987448E-05  0.86500792E-04
  0.60270579E-04 -0.34110780E-04 -0.53990349E-06  0.24875723E-05  0.17420794E-05
  0.67641366E-06 -0.24345239E-05  0.34531614E-05 -0.53833068E-06  0.44305228E-06
 -0.58704359E-06  0.51728424E-05  0.13560921E-05  0.86452055E-05  0.14360344E-04
 -0.38258569E-04  0.97310731E-05  0.14511458E-04 -0.15616225E-05 -0.17972097E-04
 -0.89930760E-06  0.53824753E-06 -0.18123609E-05  0.40543368E-06  0.21651593E-05
 -0.11681730E-05  0.14393217E-05  0.41865320E-06  0.38940111E-06  0.19981488E-05
  0.69624842E-07  0.29657748E-06 -0.66988315E-06  0.13445346E-05  0.43176597E-06
 -0.14696554E-05  0.12375608E-05 -0.34160476E-06  0.78185431E-07 -0.14961055E-05
  0.26085850E-07  0.70171791E-06 -0.18882724E-05  0.73179760E-06 -0.74342632E-07
 -0.61275562E-06 -0.16219534E-05 -0.20724083E-07  0.82354288E-06 -0.24237131E-06
 -0.13899949E-05  0.26105017E-05 -0.18106585E-05 -0.67153337E-07 -0.43326380E-06
  0.99105557E-06  0.20507662E-06  0.11103955E-06  0.19362280E-06 -0.26531416E-06
  0.21333743E-05 -0.17622193E-05  0.12478756E-05 -0.61436674E-06  0.19589216E-06
 -0.65716808E-05 -0.27404691E-04  0.96169890E-06  0.90291945E-05  0.99986696E-05
 -0.18420778E-04  0.17117641E-04 -0.11730386E-04  0.87987374E-05 -0.84326779E-06
  0.10008090E-05  0.27897290E-06 -0.71777710E-06 -0.30507590E-05  0.19184497E-05
 -0.82265095E-06  0.23765697E-06 -0.10961303E-05  0.36598637E-05 -0.79256713E-06
  0.99749514E-05 -0.96898188E-05  0.18470386E-04 -0.26150307E-04  0.11485031E-05
  0.46905248E-05  0.87616713E-05  0.19875769E-05  0.41603008E-05  0.17196712E-05
  0.15629085E-05 -0.94328944E-06 -0.11431562E-05  0.22477658E-06 -0.24976404E-05
 -0.35501157E-05  0.19915224E-04 -0.20390988E-05 -0.33515924E-04 -0.28731548E-04
 -0.25886138E-04  0.27951598E-04  0.42057732E-05 -0.11264731E-04 -0.27446919E-04
  0.50928810E-06  0.20100457E-05 -0.14707708E-05  0.16612398E-05  0.88887717E-06
 -0.12379819E-05  0.13431430E-05  0.77367674E-06 -0.21048168E-06  0.12752188E-04
  0.22862974E-04 -0.91348839E-05 -0.60606355E-05 -0.39735129E-04  0.82430721E-05
 -0.91854397E-06  0.58791426E-05 -0.30847242E-05  0.66101519E-06 -0.10060015E-05
 -0.98417892E-06  0.61036667E-06  0.15356733E-05 -0.49202265E-06  0.17002165E-07
  0.82923310E-07 -0.65512727E-06  0.15665879E-05  0.70971678E-06 -0.27169590E-06
  0.81435467E-06 -0.20431678E-05  0.15190104E-05 -0.82529665E-06 -0.14813881E-05
  0.39904143E-06 -0.17578107E-06 -0.52540802E-06 -0.57936920E-06 -0.13489563E-05
  0.15629521E-07  0.83091471E-06  0.60783662E-06  0.45790666E-06  0.11406495E-05
 -0.52914880E-07 -0.27714195E-05  0.25807001E-06  0.17439188E-05 -0.25918542E-05
 -0.11567098E-06 -0.27900591E-06  0.22129197E-06 -0.17654033E-05 -0.34701215E-05
 -0.79946984E-06 -0.72085718E-06  0.10365338E-05  0.47868790E-05 -0.17461797E-06
 -0.19685411E-05 -0.59427125E-06 -0.18901425E-05  0.15621067E-04 -0.54028550E-04
  0.83436403E-05 -0.30276110E-04  0.50523037E-04 -0.41391072E-04  0.60205054E-06
 -0.40978736E-05 -0.10118551E-04 -0.64951329E-06 -0.14891955E-05 -0.58101101E-06
 -0.14778482E-06  0.25616346E-06 -0.92475339E-06 -0.11728866E-05  0.35365039E-06
  0.64406700E-06  0.15121260E-04  0.30822272E-05 -0.15499735E-05  0.11240595E-04
  0.88397441E-06 -0.95624231E-06 -0.15573518E-04 -0.10386364E-04  0.45361241E-05

 -0.27034801E-07  0.23386673E-05 -0.31450856E-06 -0.16717278E-05  0.46457035E-05
 -0.22730699E-05  0.10416985E-05 -0.53784276E-06 -0.12308523E-05  0.40898633E-05
  0.10838626E-07  0.32633953E-05  0.42650585E-05 -0.20247338E-05 -0.69678032E-06
  0.21365130E-05  0.26557566E-04  0.88322783E-06 -0.50797355E-04  0.30082894E-04
 -0.33155901E-05  0.70966017E-04 -0.55616545E-04  0.19852247E-04  0.78565626E-04
  0.38435434E-05  0.12854630E-04  0.34569311E-05  0.75071530E-07  0.28091444E-05
 -0.15997703E-05  0.10229575E-05 -0.15678395E-05  0.10008395E-05 -0.12686812E-05
  0.37894900E-05 -0.74075121E-05  0.43113737E-05  0.11691674E-05 -0.77852965E-05
 -0.15055826E-04  0.11210236E-04 -0.67834723E-05 -0.12619459E-04 -0.84424817E-05
 -0.13748771E-05 -0.25433815E-05  0.28673773E-06 -0.19749521E-06 -0.77653823E-06
  0.36021533E-06  0.35112309E-07 -0.68826542E-06 -0.37238143E-06 -0.85391845E-06
  0.26389397E-06 -0.61207490E-06 -0.66141507E-06  0.44515498E-06  0.18021122E-05
  0.37256989E-06 -0.80884484E-06 -0.36860163E-07  0.63653378E-06  0.51503676E-06
 -0.14000823E-06 -0.11283469E-05  0.33707166E-06  0.62541194E-06 -0.37230616E-06
  0.81853051E-07 -0.44158253E-06  0.90765038E-07 -0.80895365E-06  0.18468396E-05
 -0.44693582E-06  0.14762669E-05  0.41050273E-06  0.81075375E-09  0.18688415E-05
  0.23588622E-06 -0.16353487E-05  0.18777603E-05 -0.32651471E-06 -0.76391387E-06
  0.97626907E-06 -0.17173049E-05 -0.67441138E-06 -0.29117962E-06 -0.84943627E-06
  0.13138486E-04 -0.14667929E-04 -0.64204935E-05  0.65156163E-05 -0.65944982E-05
 -0.23096777E-04  0.17649584E-04  0.39508322E-05 -0.11146520E-04 -0.74710264E-06
  0.59753647E-06  0.26419710E-05  0.49020546E-06 -0.14609800E-05  0.89482519E-06
 -0.35372395E-06  0.12980935E-05 -0.79732577E-06  0.58139439E-05  0.15146978E-04
  0.12581759E-04 -0.66445722E-04  0.17575508E-04 -0.21165884E-05  0.70009160E-05
 -0.42428254E-05  0.17355691E-04  0.66391362E-06  0.95125057E-06  0.29160292E-05
  0.36552478E-06 -0.82940176E-06 -0.27616175E-05 -0.90388911E-06 -0.90496430E-06
  0.41046928E-06 -0.37498275E-05  0.33116107E-05 -0.72030656E-05 -0.89149319E-05
  0.18920288E-04 -0.55136435E-05 -0.40833317E-05  0.16962254E-04  0.20535951E-05
  0.12145680E-05  0.37438801E-06 -0.84387343E-06  0.14318157E-05 -0.12282741E-05
  0.11870445E-06 -0.56925860E-06  0.11580648E-05  0.55360608E-06  0.41926437E-05
  0.13252002E-06  0.32070270E-05  0.20171748E-05 -0.30243776E-04  0.88723339E-05
 -0.26320946E-07 -0.13483319E-04 -0.30263149E-05 -0.92261287E-06 -0.95164737E-07
 -0.29106283E-06 -0.12176789E-05 -0.73794617E-06  0.10610540E-05  0.50236036E-07
 -0.15479225E-05 -0.22123297E-05  0.10220827E-05  0.76015191E-06  0.33282161E-06
  0.90455997E-06 -0.26093283E-05  0.56685321E-06  0.62295941E-06 -0.17628956E-05
  0.57773608E-07 -0.21510823E-06  0.18295866E-06 -0.48631429E-06 -0.10133498E-05
  0.15501617E-05 -0.94934620E-07  0.58978760E-06 -0.67048902E-06  0.68023533E-06
  0.32913660E-06 -0.51286453E-06 -0.13050957E-05 -0.65583307E-06  0.41510105E-06
 -0.84015300E-06  0.17514859E-06 -0.74619116E-06 -0.11366087E-05 -0.21980406E-05
 -0.33278121E-06  0.23140676E-05 -0.10450231E-05  0.30956637E-05  0.37762495E-06
 -0.51487058E-07 -0.19509299E-05 -0.73927668E-06  0.10063002E-05  0.84063263E-05
  0.25114221E-06 -0.70393909E-05  0.23615770E-04 -0.85154580E-04 -0.16668701E-04
  0.32778289E-05 -0.85075458E-05  0.95606585E-06 -0.13531944E-05  0.14024095E-05
  0.72587837E-06 -0.55352265E-06 -0.80348811E-06  0.13875741E-06 -0.11998854E-05
  0.15200940E-06 -0.12744461E-04  0.10620615E-04  0.47548264E-05  0.21507066E-04
 -0.13503247E-05 -0.23829647E-04 -0.50635288E-05 -0.51430728E-05 -0.46605127E-05

  0.32845043E-05 -0.21572526E-06 -0.10139071E-05  0.71778951E-06  0.24031768E-05
  0.18965414E-06  0.54239139E-05 -0.36511674E-05 -0.50902152E-05  0.10035343E-05
  0.59555806E-05  0.61896583E-05 -0.50664263E-05  0.20721272E-05  0.43943287E-05
  0.20550525E-05  0.88322783E-06  0.50670417E-04  0.12583263E-03  0.17420797E-03
 -0.57453277E-04  0.21087611E-03 -0.14254466E-03  0.15922640E-03 -0.10032595E-03
  0.44174028E-04  0.38749985E-04 -0.13452229E-05 -0.18000220E-05 -0.20185688E-05
  0.25796580E-05  0.57277512E-05 -0.69627153E-05 -0.17053755E-05  0.36891487E-05
  0.33698788E-07 -0.21242132E-05 -0.28561000E-04  0.72033069E-05 -0.28968983E-05
 -0.16985845E-05 -0.97275894E-05  0.17524854E-04 -0.13686850E-04  0.29992589E-04
 -0.26454425E-05 -0.27815791E-07 -0.10320177E-05 -0.67828551E-06  0.16108987E-05
 -0.26617779E-06 -0.78158904E-06 -0.12016876E-05  0.23175061E-05 -0.87879233E-06
 -0.23249911E-05  0.20339432E-05  0.21747365E-05 -0.13262424E-05  0.15320595E-06
 -0.16522861E-05  0.98447825E-06 -0.15813542E-05 -0.91824606E-06  0.70059203E-06
  0.99589030E-06 -0.21628217E-06 -0.10591210E-06  0.34032525E-06 -0.13775164E-05
  0.42031583E-06  0.56217617E-06  0.99033253E-07  0.12706907E-06 -0.19926331E-05
  0.15766140E-05 -0.20101143E-05  0.31845899E-07  0.40628408E-06 -0.28643828E-05
 -0.56454221E-06 -0.49953493E-06 -0.27412895E-05 -0.15420444E-05 -0.13140704E-05
 -0.12275751E-06  0.19755417E-05 -0.97219251E-07  0.13866297E-06  0.24964699E-05
 -0.63301945E-05 -0.13271741E-04 -0.35122613E-05 -0.12284437E-04 -0.93701214E-08
 -0.12487315E-04 -0.27844262E-05 -0.40545380E-05  0.59709022E-04  0.13274919E-05
  0.15189076E-05  0.14869725E-05  0.20671975E-05 -0.29207444E-05 -0.32323017E-05
 -0.28649274E-05 -0.12184092E-06  0.34534954E-05  0.45681665E-05 -0.66958058E-05
  0.19744743E-04  0.82768449E-04 -0.39646936E-04 -0.20522311E-05 -0.11617557E-04
 -0.37714672E-04 -0.47562072E-05  0.16795804E-05  0.35326075E-06  0.83186616E-06
  0.20984668E-06 -0.35396702E-05  0.48192275E-06 -0.23854640E-05 -0.58712307E-06
 -0.13535260E-05 -0.17128732E-04  0.23508272E-04 -0.12997727E-04 -0.17101820E-04
 -0.16852705E-04  0.11967908E-04 -0.51052826E-05 -0.15573580E-04  0.10922408E-05
 -0.11971672E-05 -0.15963068E-05  0.36549294E-05  0.29066495E-06 -0.22210787E-05
  0.13912869E-05 -0.40507087E-06 -0.15084203E-05  0.10526481E-05  0.27358911E-05
 -0.30317796E-05  0.33348052E-04  0.54293336E-05  0.99680601E-05 -0.11998875E-04
  0.16291743E-05  0.11632541E-04  0.58012017E-05 -0.74408342E-06 -0.28962710E-05
  0.44829062E-05 -0.18164771E-06  0.11491652E-05  0.13196177E-05  0.48549156E-06
  0.14167803E-05  0.89901193E-06 -0.11915558E-05 -0.94178935E-07 -0.46011301E-06
 -0.51234649E-06  0.20467228E-05 -0.78143149E-07 -0.30337719E-06  0.17669785E-05
 -0.15461849E-05 -0.11399642E-05 -0.26133558E-06  0.36074244E-06  0.92534930E-06
  0.10643231E-05  0.26281936E-06  0.15490357E-05 -0.15347979E-07 -0.76575689E-06
  0.11810057E-06  0.47526516E-06  0.15949121E-05  0.71782869E-06  0.21703676E-05
  0.40020553E-06 -0.84551338E-06  0.13755290E-05 -0.61469921E-06  0.23703086E-06
  0.21408873E-05  0.23865393E-06  0.32646098E-05 -0.26265216E-05  0.11623191E-05
  0.37116573E-06  0.22350740E-05 -0.54118512E-06  0.12330704E-04 -0.40953712E-04
 -0.63408771E-05 -0.16528337E-05 -0.60286980E-05  0.20893340E-03 -0.22082400E-04
 -0.67491805E-04  0.66581797E-04 -0.17134667E-06  0.80130704E-06 -0.34421538E-06
 -0.40789852E-06 -0.11140478E-05  0.15060411E-05  0.20492890E-05  0.87033884E-07
 -0.60444583E-07  0.13649179E-04 -0.56533072E-05  0.16235516E-04  0.95445640E-05
 -0.55241621E-05 -0.19881278E-04  0.88373400E-05  0.68633399E-05 -0.32844868E-05

 -0.13684238E-04 -0.21346982E-04  0.68372924E-04  0.68716730E-05  0.12062756E-04
  0.20360632E-04  0.37317443E-04 -0.24213008E-04 -0.16049688E-04 -0.27777718E-04
  0.21847680E-03  0.80393120E-04 -0.91179019E-04  0.12082677E-03 -0.12899789E-04
 -0.76886221E-04 -0.50797355E-04  0.12583263E-03  0.64709285E-02  0.26581943E-02
  0.10988319E-02  0.12226120E-02 -0.55963728E-03  0.35695493E-03 -0.14254483E-02
 -0.57933574E-03 -0.17063209E-03 -0.32228203E-04 -0.46640267E-04  0.69953292E-05
  0.34017619E-04 -0.36055764E-04  0.19981510E-04 -0.97421495E-05  0.16246770E-04
  0.10633505E-04  0.52866327E-04 -0.36357906E-03 -0.42512011E-03  0.19615262E-03
 -0.70633569E-04 -0.14341013E-03  0.41496995E-03 -0.13770660E-03  0.35936835E-03
 -0.11761533E-04  0.77129216E-04 -0.30067512E-04 -0.16980003E-04  0.94359993E-05
 -0.16329535E-04 -0.88251895E-05  0.68329646E-05 -0.38549346E-05 -0.14649570E-04
  0.50355571E-04  0.23655092E-04  0.34959625E-05  0.35336070E-04  0.14199044E-04
 -0.10092102E-05  0.45957913E-05  0.13832774E-04 -0.10838824E-04  0.13544513E-04
  0.98292536E-05  0.20196082E-04  0.61526273E-04  0.53133991E-05 -0.15118390E-04
  0.14409623E-04  0.23991431E-04  0.13924383E-04 -0.97731537E-07  0.12766677E-04
  0.40479746E-04 -0.44559315E-04  0.14401802E-04 -0.88707232E-05  0.76358182E-06
  0.57698725E-06  0.92855186E-05 -0.27247995E-04 -0.30975490E-04 -0.53558720E-05
 -0.31271244E-04  0.41624234E-04 -0.42485387E-05 -0.78710727E-05  0.30180086E-04
 -0.10204057E-03  0.30998194E-03 -0.71744188E-04 -0.10016070E-03  0.48254303E-03
  0.16766403E-03 -0.51504855E-03  0.10423554E-03 -0.10965023E-03  0.39949262E-05
  0.24357458E-04  0.14884210E-04  0.12535444E-04  0.49559983E-04 -0.34962520E-04
  0.18449024E-04 -0.27405421E-05 -0.17077372E-04  0.37102814E-03  0.21232917E-04
  0.34263032E-03  0.35400229E-03 -0.40786169E-04  0.40993401E-03  0.30228666E-04
  0.32868176E-03 -0.32428476E-03 -0.12872145E-04 -0.41365254E-04  0.11258186E-04
  0.20744671E-05  0.40805242E-04  0.36717851E-04  0.85005946E-05  0.66022774E-05
  0.58030076E-05 -0.44149861E-04 -0.14609314E-03  0.58977093E-03  0.57491072E-03
 -0.25834709E-03 -0.22285537E-03 -0.37408149E-03 -0.30512385E-03  0.61090128E-04
 -0.21031301E-04  0.90842792E-05  0.25315464E-04  0.20996880E-04 -0.99854585E-05
  0.42458770E-05 -0.10547696E-04 -0.57336481E-05 -0.28044615E-04  0.12649802E-03
 -0.88101551E-04  0.25156458E-03 -0.45993470E-05  0.22528487E-03 -0.42992015E-03
 -0.76395241E-04  0.32749834E-04  0.49490477E-03 -0.37994856E-05 -0.56615503E-05
  0.19902939E-04 -0.79567930E-05  0.10985456E-04  0.33211874E-04  0.62366961E-06
  0.72760572E-05 -0.10642511E-04 -0.20877766E-04 -0.39182200E-04 -0.19134226E-04
  0.66667977E-05  0.48820408E-04  0.14383192E-04 -0.96974788E-05  0.14679438E-04
  0.69348913E-06 -0.10981951E-05 -0.71991770E-05  0.23748856E-04  0.17094326E-04
 -0.40354751E-05  0.14442132E-04  0.17722640E-05  0.28151945E-05 -0.56753784E-05
 -0.29520330E-04  0.45096956E-04 -0.31716102E-04  0.11579924E-04  0.42953154E-04
 -0.11692688E-04  0.21801026E-07 -0.24443369E-06  0.97793943E-05  0.37241977E-04
 -0.65632328E-05 -0.51019762E-04  0.26353884E-04 -0.55145599E-04  0.28128841E-04
  0.40249090E-05  0.11335118E-04  0.22159178E-04  0.23385180E-04 -0.35118573E-04
 -0.43525373E-03  0.12760322E-03 -0.41900113E-03  0.66157093E-03 -0.17570941E-03
 -0.76751956E-03  0.13797349E-03  0.19967908E-04  0.31613016E-04  0.15991057E-04
 -0.79578922E-05 -0.12884314E-04  0.44210479E-04  0.35695814E-04 -0.59178585E-05
  0.28430156E-04  0.26382695E-03 -0.18666267E-03 -0.37821248E-03 -0.71868822E-04
 -0.12545360E-03 -0.67819441E-04  0.11981073E-03  0.37779713E-04 -0.94386404E-05

  0.37798383E-04  0.37589355E-04  0.20492559E-04 -0.71441522E-05  0.53641581E-04
  0.11954385E-04  0.64232885E-04 -0.28706726E-04 -0.36886470E-05  0.69864013E-04
  0.28402650E-03  0.20849569E-03 -0.10422659E-03  0.10877659E-03 -0.30058186E-04
  0.54267932E-04  0.30082894E-04  0.17420797E-03  0.26581943E-02  0.73763764E-02
  0.67540646E-03  0.40286102E-02 -0.22868766E-02  0.26489090E-03 -0.11709502E-02
 -0.54871714E-03 -0.80780950E-03 -0.34460403E-04 -0.10600605E-04  0.31984001E-04
  0.19888274E-04 -0.17963718E-04  0.13397652E-04 -0.33862271E-04 -0.52573419E-05
  0.34824755E-04 -0.19177311E-04 -0.17558464E-03  0.90269635E-04 -0.75573168E-04
  0.17506070E-02 -0.20434301E-04  0.52954623E-03 -0.96791129E-04  0.71824964E-03
 -0.20795145E-04  0.40835671E-04 -0.31503531E-04  0.16851071E-04  0.11925369E-04
  0.26350778E-05  0.14154117E-04  0.17061909E-04  0.14279050E-04 -0.12805041E-04
  0.50199365E-04  0.12536872E-04  0.15458201E-04  0.60542584E-04 -0.17247713E-04
 -0.30897164E-04  0.13237780E-04  0.17259061E-04 -0.15756897E-04  0.25030414E-05
  0.17913256E-04  0.47828019E-04  0.97547278E-05  0.21370582E-04 -0.11124725E-04
  0.11299697E-04  0.93779633E-05  0.22741646E-04  0.35915195E-04  0.24965382E-04
  0.33991311E-04 -0.23276050E-05  0.46072785E-05  0.70332011E-05 -0.13095524E-04
  0.99477252E-06  0.13434392E-04 -0.37672698E-04 -0.47937594E-05  0.16137639E-05
 -0.30914129E-04  0.12754285E-04 -0.16076013E-04 -0.17305840E-04  0.14138888E-04
 -0.80803721E-04  0.57912552E-04 -0.50649468E-04 -0.14917182E-03  0.30187029E-03
 -0.11151869E-03 -0.18595301E-03 -0.10251150E-03  0.13143502E-03  0.32430113E-05
 -0.43790996E-05  0.19519594E-04  0.77223028E-05  0.25909720E-04 -0.24728837E-04
 -0.16342952E-04  0.86623392E-05 -0.17066769E-05  0.11320540E-03  0.22447557E-03
  0.56314227E-04  0.87648022E-03  0.13355626E-03  0.15749022E-03 -0.21667406E-04
  0.92982712E-04 -0.18922539E-03  0.69218492E-05 -0.15287853E-04 -0.19904600E-04
 -0.84740508E-07  0.42155507E-04  0.43505128E-04  0.18432718E-04 -0.51432863E-06
  0.43893713E-05 -0.58798759E-04  0.24022845E-03  0.29918279E-03  0.33950931E-03
 -0.51464240E-03 -0.10435894E-03 -0.14188504E-03 -0.16142439E-03  0.12618387E-03
 -0.36249717E-04 -0.31663290E-04  0.35645671E-04  0.27233569E-04 -0.63382256E-05
  0.23949330E-04  0.30376893E-05  0.71505905E-05 -0.32175711E-04  0.18550409E-03
 -0.92394684E-04  0.31456899E-05  0.59282018E-04 -0.38285929E-03 -0.44537041E-03
  0.13603325E-03  0.24099183E-03  0.47822239E-03  0.12518477E-04 -0.11523954E-05
  0.85619941E-05 -0.51311170E-05  0.19602554E-04  0.38791047E-05  0.28159319E-05
  0.12912024E-04 -0.15781394E-04 -0.32676685E-06 -0.52846060E-05 -0.26997000E-04
  0.19864393E-04 -0.25559367E-04  0.40320795E-04  0.13217742E-04 -0.11762513E-05
  0.28571043E-04 -0.17147723E-04 -0.34470385E-05  0.24438221E-04  0.25598921E-04
  0.18799478E-04  0.18004324E-04  0.20110246E-04  0.19175488E-04 -0.12401960E-04
 -0.53256504E-04  0.54592902E-04 -0.80224564E-05  0.19988826E-04  0.14816776E-05
 -0.60289051E-05 -0.26880417E-04  0.16736190E-04 -0.83899933E-05  0.11773152E-04
 -0.86272139E-06 -0.33676433E-04  0.11960625E-04  0.63811668E-04  0.49804919E-05
  0.27653692E-04 -0.10571003E-04 -0.51310821E-05 -0.35681024E-04  0.59733687E-05
  0.82744698E-03  0.29755803E-03  0.39747111E-03  0.57463968E-03 -0.58902991E-03
 -0.72268479E-03  0.57500386E-03 -0.12608720E-04 -0.51181951E-05 -0.67925016E-05
 -0.49268915E-05 -0.14736927E-04  0.24589294E-04  0.20178805E-04 -0.13913286E-05
  0.23389050E-04  0.25511692E-03  0.10848583E-03 -0.10293166E-03 -0.24686257E-03
  0.55792060E-04 -0.63783932E-04 -0.32291571E-04 -0.29045593E-03  0.14276773E-03

  0.29335733E-04 -0.14899586E-05 -0.52363992E-05 -0.55792765E-06  0.12553836E-04
 -0.21118959E-04  0.54415681E-05  0.21056114E-04  0.23595803E-04  0.11678584E-04
  0.16004458E-03  0.10239335E-04 -0.22775877E-04  0.12884814E-03 -0.13849787E-03
  0.38261472E-04 -0.33155901E-05 -0.57453277E-04  0.10988319E-02  0.67540646E-03
  0.41100051E-02  0.12220316E-02  0.42824709E-03 -0.37659333E-03  0.17257236E-03
 -0.65181448E-03 -0.95359246E-03 -0.85861747E-05  0.27283610E-04 -0.14315114E-04
  0.12349130E-04 -0.30720667E-04  0.49847427E-04 -0.19062645E-04 -0.13103160E-05
  0.15020414E-04 -0.15559346E-03  0.99398379E-04 -0.88539389E-04 -0.95845524E-05
  0.43038488E-04 -0.39918822E-03 -0.45235409E-04 -0.16523174E-03 -0.15365966E-03
  0.39268073E-05  0.25034721E-04  0.24761823E-04 -0.10667951E-06  0.13967949E-04
  0.57367063E-05  0.16684064E-04 -0.13657933E-04  0.14932935E-04  0.52312998E-05
  0.31979730E-04  0.15850495E-04 -0.51796179E-05  0.14058529E-04  0.16334136E-04
 -0.17498944E-05  0.79803570E-05  0.15730554E-04 -0.13970650E-05  0.16574988E-05
 -0.88606564E-05  0.62604389E-05  0.12611112E-05  0.30210482E-04  0.74871912E-05
  0.81166189E-05  0.42709013E-05 -0.31117135E-05 -0.16839158E-04 -0.34083301E-05
 -0.17471123E-05 -0.10909085E-05  0.22977294E-04 -0.26746785E-06  0.11766776E-05
 -0.25435996E-04  0.31048302E-05  0.59907688E-05 -0.29414603E-04 -0.25142400E-05
  0.11348926E-04 -0.24981760E-04  0.12283000E-04 -0.87658177E-06  0.11709419E-04
  0.78649287E-04 -0.16155778E-03 -0.18650513E-03 -0.48455279E-04  0.45016785E-03
 -0.11567639E-03 -0.16586992E-03  0.18738710E-03 -0.42603416E-03 -0.98475454E-06
  0.26281441E-04 -0.13110808E-06 -0.21689203E-05  0.44540998E-05  0.13067770E-04
  0.49483654E-06 -0.14371149E-04 -0.20569627E-04  0.15765257E-03  0.56652293E-04
  0.29650312E-03 -0.33206111E-04  0.13021543E-03  0.14988593E-03 -0.13840803E-03
  0.37639209E-03  0.19544225E-03 -0.12287078E-04  0.33833992E-06 -0.20123688E-04
  0.14575025E-05  0.22496517E-04 -0.60033636E-06  0.27164944E-05  0.13607934E-04
 -0.87230868E-05  0.20657960E-03 -0.24445410E-03  0.79760002E-04  0.19651927E-03
 -0.27523985E-03  0.12505714E-03 -0.10059411E-03 -0.20731412E-03 -0.10925528E-03
  0.15355678E-05  0.18274369E-05 -0.17117783E-05  0.13258488E-04  0.98750297E-05
  0.37193870E-05  0.51771769E-05 -0.95174303E-05 -0.81685251E-05  0.90313947E-04
  0.85115093E-04  0.11059049E-03  0.26131482E-04 -0.24146295E-03 -0.13434510E-03
  0.67412854E-04 -0.77797251E-04 -0.36426559E-04  0.14822632E-04  0.11171261E-04
 -0.26635636E-04  0.36390882E-05  0.13277497E-04  0.10831667E-04 -0.89004405E-05
  0.12404821E-04 -0.24012309E-05 -0.18548684E-05 -0.54136855E-06 -0.43333386E-05
  0.89752162E-05  0.19659999E-04 -0.76856397E-05 -0.11969047E-04 -0.88841269E-05
 -0.11265964E-04  0.30460504E-05 -0.62313792E-05  0.15318834E-04 -0.26892804E-06
  0.98547309E-06  0.96011719E-05  0.16296557E-05 -0.53677261E-05  0.23550500E-05
 -0.13533949E-04 -0.19828630E-04 -0.71496203E-05 -0.14697567E-05 -0.15285421E-04
  0.71725024E-05  0.61264779E-07 -0.25424817E-05  0.12340484E-04  0.52790672E-05
 -0.14799460E-04  0.11383076E-04  0.26683275E-05  0.90248497E-05  0.19603817E-04
  0.20346286E-04 -0.67807205E-05 -0.12268717E-04 -0.31669785E-03  0.25619092E-03
  0.55841396E-03 -0.15331262E-03  0.19475064E-03 -0.11571079E-02  0.22793137E-03
  0.16034133E-03 -0.41877021E-03  0.59661383E-05 -0.13367825E-04  0.41514442E-05
  0.11075861E-04 -0.40471100E-05 -0.37764709E-05  0.11972142E-05  0.11148227E-04
  0.12116319E-04 -0.88773804E-04  0.67911051E-04 -0.48748516E-04  0.35844727E-04
 -0.13566406E-03  0.63292992E-04  0.16382219E-04 -0.28582496E-03  0.14384708E-03

  0.36490469E-04 -0.11232397E-04 -0.73208248E-05 -0.10872591E-03  0.13247475E-03
  0.20116113E-04  0.44592721E-04 -0.70710866E-04 -0.84966664E-05  0.18738228E-03
  0.47919399E-03  0.23811244E-03 -0.16669576E-03  0.18899173E-03 -0.90262978E-04
  0.25370716E-03  0.70966017E-04  0.21087611E-03  0.12226120E-02  0.40286102E-02
  0.12220316E-02  0.33180712E-01 -0.10056087E-01 -0.56323892E-02  0.25341089E-03
 -0.55597518E-04 -0.14512797E-02 -0.76073740E-04 -0.26611944E-05  0.76964536E-04
  0.46634201E-04  0.18177059E-04  0.24066309E-04 -0.14443452E-04  0.59915762E-05
  0.14055651E-04  0.16447809E-03 -0.21697398E-03  0.47265760E-03  0.11731699E-02
 -0.33323694E-04  0.38705603E-03  0.33340367E-03  0.67255401E-03  0.46451719E-03
  0.30885184E-04  0.32748591E-04  0.43014674E-04 -0.10096501E-03  0.25778799E-04
  0.11736415E-04  0.12617934E-04 -0.27507187E-04  0.24160131E-04 -0.25708538E-04
 -0.14253243E-04  0.39294445E-05  0.16513269E-03  0.95368750E-05 -0.29323100E-04
  0.52961754E-04  0.49154367E-04 -0.19992751E-04  0.42785584E-04  0.38236305E-04
  0.14620464E-04 -0.20326036E-04  0.60255936E-04  0.54731815E-04  0.29450035E-04
 -0.15747652E-04  0.17166437E-05 -0.42655099E-04  0.13246304E-04 -0.39638255E-04
  0.46379580E-04  0.36889892E-04 -0.23273227E-04 -0.35614859E-04  0.14258399E-04
 -0.19201092E-04  0.22555106E-04 -0.20838362E-04  0.81528272E-04  0.73134464E-05
  0.90680701E-04 -0.79736971E-04 -0.36750975E-04 -0.20099387E-04  0.68579663E-04
 -0.86200363E-03  0.30251728E-03  0.94400512E-03 -0.14879105E-03  0.30628425E-03
 -0.62830496E-03  0.61591069E-04 -0.37214327E-03  0.65375953E-03 -0.36244118E-04
 -0.90748757E-04 -0.45913985E-04  0.41825390E-04 -0.10628939E-04 -0.27237972E-04
 -0.24337341E-04 -0.25157698E-05  0.88504264E-04  0.49143595E-03 -0.32932934E-03
 -0.84448414E-03  0.40661121E-02 -0.31691441E-03 -0.12121826E-02  0.28585872E-04
 -0.90779927E-03 -0.97035273E-03  0.42758406E-04 -0.24677260E-04 -0.11655396E-04
  0.24244615E-05  0.16309167E-04  0.66746039E-04  0.46656720E-05  0.46195676E-05
 -0.66759252E-04 -0.72227499E-03 -0.38808850E-03 -0.67168712E-03 -0.23042307E-03
 -0.16667583E-03  0.59381269E-03  0.45741198E-04 -0.18119423E-03 -0.62562981E-03
  0.50659772E-05  0.31323898E-05  0.42262668E-04 -0.73598978E-05  0.33501368E-04
  0.12821154E-03  0.40753707E-04 -0.53248788E-04 -0.83640835E-06 -0.18714306E-03
 -0.32226471E-03  0.74307774E-03 -0.70949304E-03  0.22664991E-03  0.21566715E-03
 -0.18794008E-03  0.11895079E-03  0.32549471E-03 -0.20168648E-04 -0.16265289E-04
  0.45964257E-04  0.58112242E-05 -0.15693877E-04  0.49408808E-04  0.15340195E-05
 -0.14981881E-04 -0.25946791E-04 -0.84352485E-04  0.24199203E-04 -0.38345112E-04
  0.28053431E-04 -0.56103812E-05  0.39468423E-04 -0.21118714E-04  0.64021047E-04
  0.41268291E-04  0.73270910E-05 -0.10357801E-04 -0.26993751E-04 -0.37322428E-05
  0.59089652E-04  0.37309400E-04  0.25141147E-04  0.10425847E-04  0.11936565E-04
  0.64209153E-04 -0.23001049E-04  0.30928352E-04  0.10473448E-03  0.90019285E-05
  0.98710639E-05  0.67769152E-04  0.46518906E-04 -0.16041107E-04  0.26639934E-04
  0.33690992E-04  0.17746577E-04 -0.34390161E-04  0.15440057E-03  0.54896086E-04
 -0.19107597E-05 -0.91371970E-05  0.55815547E-04  0.87917136E-04 -0.91121877E-04
  0.10125534E-02  0.10326649E-03  0.11157232E-02  0.29386046E-02 -0.27634707E-03
 -0.13294518E-02  0.84314530E-03  0.98452139E-04  0.37805363E-06  0.46047663E-04
  0.81580723E-05  0.52786565E-04  0.27115357E-04  0.55057635E-04  0.53485360E-04
 -0.37796839E-05  0.10370743E-02  0.28123159E-03 -0.64895308E-04 -0.19715101E-02
  0.16535124E-03  0.85852116E-03 -0.26892314E-03 -0.13610976E-03 -0.24851487E-03

 -0.11622089E-04 -0.37478398E-04  0.13068878E-05 -0.16678814E-04 -0.13991032E-04
  0.43720123E-04 -0.73021924E-04  0.23659708E-04  0.19360820E-04 -0.84884626E-04
 -0.11626267E-03 -0.31856140E-03  0.65722172E-04  0.22248224E-03 -0.60033600E-04
 -0.69739714E-04 -0.55616545E-04 -0.14254466E-03 -0.55963728E-03 -0.22868766E-02
  0.42824709E-03 -0.10056087E-01  0.16295637E-01 -0.21137371E-02  0.43666118E-02
 -0.36050968E-03 -0.40178635E-03  0.30838374E-04  0.68518981E-04 -0.58213037E-04
  0.59032138E-05 -0.38012760E-04 -0.16201518E-05 -0.18418713E-04  0.15022552E-04
  0.13903547E-04  0.20441944E-03 -0.36213496E-03  0.29259383E-03 -0.39926406E-04
 -0.19542908E-02 -0.25562395E-03 -0.77470338E-03 -0.34285829E-03 -0.83000168E-03
  0.43778397E-04  0.63444896E-04  0.37247324E-04 -0.88628750E-05  0.55685498E-04
 -0.82653651E-05  0.40769597E-04 -0.36733723E-05  0.13308681E-04 -0.26621690E-04
  0.46090529E-04 -0.13201594E-04 -0.50549416E-04 -0.65809749E-04  0.14407804E-04
 -0.37326667E-04 -0.28157913E-04  0.52431801E-05 -0.27344939E-04 -0.99270763E-05
 -0.24689607E-04  0.14317767E-04 -0.10896142E-04 -0.45627599E-04  0.30775465E-05
  0.13193553E-04  0.13460961E-04  0.21712225E-04 -0.11689559E-04 -0.22618419E-05
 -0.35494387E-04  0.43333665E-04 -0.71748195E-07  0.62917564E-04 -0.18277160E-04
  0.17543826E-05 -0.30352003E-04  0.24024536E-04 -0.15276830E-04 -0.18956511E-04
 -0.62903679E-04  0.58312038E-04  0.70499399E-05 -0.10016726E-04 -0.47783020E-04
  0.20884030E-03  0.23119498E-03 -0.26726829E-03  0.50078057E-04  0.16293314E-03
 -0.18879662E-03 -0.27781473E-04  0.34370770E-03 -0.33727697E-03  0.41636837E-04
  0.34314817E-05 -0.21659268E-04 -0.10021941E-04 -0.85196572E-05 -0.98074493E-05
  0.21628054E-04 -0.95739536E-05 -0.22739752E-04 -0.12163598E-04  0.21503774E-03
  0.36539294E-03 -0.81693577E-03 -0.41356368E-03  0.41438868E-03  0.80375411E-04
 -0.35505123E-03  0.47307879E-03 -0.13850982E-04  0.24601958E-04 -0.47045657E-04
  0.20187983E-04 -0.11059569E-03  0.21339549E-05 -0.40506173E-04  0.13365850E-04
  0.44183397E-04  0.52123652E-03  0.51355830E-03  0.22367655E-03  0.12084851E-03
 -0.99326535E-04 -0.28175959E-03 -0.61710310E-04  0.81434435E-04  0.30853973E-03
  0.29367015E-04 -0.53359578E-04 -0.95742883E-05 -0.25624872E-06 -0.78348674E-05
 -0.74832188E-04 -0.10862505E-04  0.70331866E-05 -0.31125886E-07  0.16443012E-03
 -0.41545718E-05 -0.73649018E-04  0.14482392E-03  0.38863817E-03  0.33258766E-03
  0.32388966E-03 -0.49299404E-04 -0.19082143E-03  0.71241465E-06  0.47989474E-04
 -0.20270749E-04  0.12713841E-04 -0.34141418E-05 -0.28134429E-04 -0.27810939E-05
  0.80355411E-05  0.26629306E-04 -0.41317071E-05 -0.12672807E-05 -0.43411273E-04
 -0.30440714E-04  0.89248612E-05 -0.11465476E-04 -0.18428724E-04 -0.26114418E-04
 -0.86781762E-05  0.13051436E-05 -0.12038443E-05  0.11309349E-04 -0.33822821E-05
 -0.24999734E-04 -0.31132205E-04 -0.15576125E-04 -0.59951012E-06 -0.12379611E-04
 -0.26188713E-04 -0.41810988E-04 -0.23236751E-04 -0.37362930E-04 -0.25373845E-04
 -0.60270517E-05 -0.10452609E-04 -0.24383809E-04 -0.13556775E-04  0.34014045E-04
  0.10392950E-03  0.13038178E-04  0.43464256E-04 -0.17665901E-03  0.18028784E-04
 -0.36390877E-05  0.25756390E-04 -0.84322564E-04 -0.50686862E-03  0.60662567E-03
  0.35497788E-03  0.69997339E-04 -0.10499765E-02 -0.16236068E-02  0.52199179E-03
  0.80775342E-03 -0.11762907E-03 -0.12947576E-04 -0.57173933E-04 -0.28366137E-04
 -0.10514182E-04 -0.48649625E-04  0.38873400E-05 -0.30569280E-04 -0.19417907E-04
  0.32088071E-05 -0.15951524E-03 -0.31831664E-03 -0.67885677E-03  0.40175803E-03
 -0.37796300E-03  0.14943911E-03  0.13541670E-05  0.37396644E-04  0.16696959E-03

 -0.33805857E-04 -0.25534140E-04 -0.46120570E-04  0.38677982E-04  0.46661849E-05
 -0.49498174E-04  0.30727674E-04  0.38400520E-04 -0.72085542E-06  0.70545441E-05
 -0.60376562E-04  0.13586050E-03  0.20169327E-04 -0.80640853E-04  0.51826270E-04
 -0.41987448E-05  0.19852247E-04  0.15922640E-03  0.35695493E-03  0.26489090E-03
 -0.37659333E-03 -0.56323892E-02 -0.21137371E-02  0.91115317E-02 -0.39600776E-03
  0.16670611E-02  0.91460199E-03  0.22877285E-04 -0.31894339E-04  0.99947952E-05
 -0.17087747E-04  0.31754389E-06 -0.12332194E-04 -0.31124511E-06 -0.97156829E-05
  0.24690781E-06 -0.25443156E-03  0.13789765E-03 -0.40772115E-03 -0.16743627E-03
 -0.47543050E-04 -0.90463117E-04  0.55889839E-04 -0.17753344E-04  0.85026548E-04
 -0.43788725E-04 -0.23567812E-04 -0.46946918E-04  0.34848802E-04 -0.39454624E-05
 -0.79727812E-04 -0.12525942E-04 -0.45567594E-05 -0.39216112E-04 -0.18117428E-04
 -0.11376796E-05 -0.54880241E-05 -0.38245655E-04 -0.15774696E-05  0.64482734E-04
 -0.15045854E-04  0.18498912E-05  0.13426796E-05 -0.75293298E-05  0.85459961E-05
  0.78003402E-05 -0.72794041E-05 -0.99081254E-05 -0.98910351E-06 -0.26525204E-04
  0.29479923E-05  0.20139703E-04  0.43453561E-05 -0.32318049E-04  0.13756724E-04
  0.46680939E-05 -0.26510665E-04  0.41969679E-04  0.75601056E-05 -0.75354421E-05
 -0.25011054E-06  0.57400349E-05  0.32517569E-04 -0.63412747E-04 -0.17141579E-04
  0.17891773E-04  0.44795457E-04  0.31576606E-04  0.97707840E-05  0.22998000E-04
  0.40189514E-03 -0.25904553E-03 -0.44098915E-03  0.95557947E-04  0.44631030E-04
  0.39470396E-04 -0.32735138E-04  0.77070123E-04 -0.23381565E-03  0.98229770E-05
  0.12492935E-04 -0.58079886E-05 -0.94698512E-05  0.94542840E-05  0.91398311E-06
  0.12182829E-05 -0.17512580E-04 -0.20429863E-04 -0.13559991E-03 -0.13870670E-03
  0.13853542E-03 -0.67146361E-03  0.28425149E-04 -0.80071493E-03 -0.54255690E-04
  0.53247247E-05  0.13978479E-03  0.28203132E-05  0.18043278E-06  0.79430672E-04
  0.13862264E-04  0.21102082E-05 -0.52311366E-04  0.63545895E-05  0.89941106E-06
 -0.12876302E-04  0.58326281E-04 -0.41973301E-04  0.18875315E-03  0.21377281E-03
  0.67570749E-05  0.15136292E-03 -0.21401596E-03 -0.22618300E-03  0.85179834E-04
 -0.10787595E-04  0.28534542E-04 -0.17618279E-04  0.29120131E-04 -0.31825913E-04
 -0.27611604E-04 -0.66020229E-05  0.10490211E-04  0.11345020E-04  0.13654088E-03
  0.16088678E-03 -0.13845638E-04  0.23056523E-03 -0.36170749E-04 -0.47932051E-03
 -0.74774612E-04 -0.57321364E-04 -0.20893872E-03  0.15492617E-04  0.67970945E-05
  0.95555708E-06 -0.25416858E-05  0.30660975E-04 -0.32585749E-05 -0.77776459E-06
  0.10756079E-04 -0.25539077E-05  0.26393980E-04 -0.15473200E-04  0.67330807E-04
 -0.46909039E-05  0.20004266E-04  0.21918690E-04  0.69535196E-05  0.25892286E-05
 -0.27925321E-04 -0.17806702E-04 -0.61387275E-05  0.16058295E-05  0.33723772E-05
 -0.75126343E-05  0.32274531E-04  0.10042843E-04 -0.37705672E-05  0.13878530E-04
 -0.65663082E-05  0.11399398E-04  0.19874438E-04 -0.10892916E-04 -0.70291219E-05
  0.33349996E-04 -0.16188484E-04 -0.17814711E-04 -0.16045814E-04 -0.84435990E-05
 -0.31482017E-04 -0.50620033E-04  0.91175157E-05  0.36272630E-04 -0.65696939E-04
  0.23152585E-04 -0.19967426E-04 -0.46558400E-05  0.78130884E-04 -0.39714187E-03
  0.79743155E-04 -0.86427100E-04  0.19269234E-03 -0.23767756E-03 -0.17068352E-03
 -0.16518083E-04 -0.27516911E-03 -0.15373141E-04  0.12787209E-04  0.42007570E-04
  0.75406469E-05 -0.86839607E-05  0.13391253E-04 -0.91432715E-05  0.51475974E-05
  0.19347306E-04 -0.58568173E-03 -0.71453414E-04 -0.10201904E-04  0.89842586E-03
 -0.46298773E-04 -0.46821582E-03  0.17900302E-03 -0.26681281E-04 -0.40244086E-04

 -0.11687060E-04 -0.54290041E-04 -0.93190938E-05 -0.23197781E-04  0.64274377E-04
 -0.11072729E-04 -0.14939957E-04  0.11225474E-04  0.33370959E-04  0.11428955E-03
 -0.14147138E-03 -0.12781143E-03  0.12453959E-03 -0.48179546E-04  0.36506363E-06
  0.86500792E-04  0.78565626E-04 -0.10032595E-03 -0.14254483E-02 -0.11709502E-02
  0.17257236E-03  0.25341089E-03  0.43666118E-02 -0.39600776E-03  0.87256518E-02
  0.82710440E-03  0.68678579E-03  0.17026027E-04  0.28907527E-04 -0.26178767E-04
 -0.17164252E-04  0.36820328E-04  0.90774685E-05  0.44086881E-05  0.19835715E-05
  0.51852918E-05 -0.12286199E-03 -0.50043977E-03  0.16317092E-03 -0.33567817E-04
 -0.71561517E-03  0.34122535E-03 -0.30853752E-03  0.76599859E-04 -0.17566736E-03
  0.63262178E-05 -0.68515213E-04  0.24668915E-04 -0.21039796E-04  0.32156252E-04
 -0.19833426E-04  0.45290489E-04 -0.21966730E-04  0.44026428E-05 -0.23723670E-04
  0.49883393E-04 -0.33214530E-04 -0.57770771E-04 -0.12824789E-04  0.27162415E-04
 -0.11537759E-04 -0.35482907E-04 -0.31060780E-04 -0.11392425E-04  0.40470868E-04
 -0.98051172E-05 -0.17915487E-04 -0.28017018E-04 -0.21455373E-04 -0.12962735E-04
  0.17197527E-04 -0.43060342E-05 -0.68545090E-05 -0.58141511E-04 -0.11628119E-04
  0.17667598E-05  0.30351617E-04 -0.77503067E-05  0.35411795E-04 -0.24001170E-05
  0.35227740E-05 -0.10786845E-05  0.17167992E-04  0.30449623E-04  0.35149783E-05
  0.21749586E-04 -0.42666783E-06  0.11081603E-04 -0.55287515E-05 -0.32878337E-04
 -0.18741210E-04  0.30996398E-03  0.88534151E-04  0.33007963E-03  0.19289218E-03
 -0.35818697E-03 -0.11016068E-03  0.82197598E-05 -0.46674792E-03 -0.42329461E-05
 -0.15371717E-04 -0.20173513E-04 -0.10978627E-04 -0.16119549E-04  0.16297555E-04
 -0.40980050E-05 -0.74604634E-05 -0.10908327E-04  0.35017520E-03  0.13928975E-03
  0.16122468E-03 -0.24646208E-03 -0.16167539E-03 -0.44313573E-03  0.24484392E-03
  0.38860185E-04  0.10781893E-03  0.16674277E-04 -0.21256109E-04 -0.14992109E-04
  0.66658848E-05 -0.10184978E-03 -0.10428855E-06 -0.10183671E-04  0.77144243E-05
  0.68895094E-05  0.52940873E-03  0.97205949E-04 -0.37311430E-03  0.23389892E-03
  0.55415092E-03 -0.31008266E-04 -0.64617596E-03 -0.12900562E-03  0.47103865E-04
  0.88495298E-05 -0.27684552E-04 -0.50974359E-04  0.12818030E-04 -0.31778924E-04
 -0.29026026E-04 -0.28611240E-04  0.17178305E-05  0.21371523E-04  0.54425300E-04
  0.19553257E-03 -0.21939810E-03  0.16853559E-03 -0.51576942E-04  0.28935973E-03
  0.11613888E-03 -0.15773668E-03 -0.17087873E-03  0.75312952E-05  0.16333580E-04
  0.11923500E-04  0.85399563E-05  0.18166686E-04 -0.33282028E-04  0.95478449E-05
  0.60410784E-06  0.44862975E-05 -0.40916570E-05  0.20996884E-04 -0.89700694E-05
 -0.12873017E-04 -0.84131794E-05  0.31212508E-04  0.45120211E-05 -0.43006995E-05
  0.18986743E-04  0.37939110E-07  0.19170431E-04 -0.32885439E-05 -0.11731576E-04
  0.13932902E-04 -0.92047201E-05 -0.98250161E-05  0.14861838E-05 -0.12160085E-04
  0.17054551E-04  0.19873646E-06 -0.20383290E-04 -0.17981863E-04 -0.72635538E-04
  0.18925388E-04  0.30639782E-05 -0.21280476E-04 -0.95902315E-05  0.22120645E-04
  0.48637532E-04  0.51282016E-04  0.46661430E-05  0.17324036E-04 -0.17119516E-04
  0.10154791E-05  0.21180290E-04 -0.22562564E-04 -0.62196799E-03  0.91458134E-03
  0.29648925E-03  0.94949305E-04 -0.30521666E-03 -0.44607028E-03 -0.21154323E-03
  0.38585961E-03  0.56919479E-03  0.49328089E-04  0.46884582E-05  0.17841608E-04
 -0.71124536E-05 -0.66368311E-04  0.17235115E-04 -0.26573368E-04  0.81862467E-05
 -0.48929719E-05 -0.27186745E-03  0.27091333E-03 -0.98859518E-03  0.40830815E-03
 -0.16825836E-03  0.22668590E-03 -0.42462904E-04 -0.43121298E-04  0.32633258E-03

 -0.40382002E-04 -0.14462341E-04 -0.62834876E-04 -0.76573350E-05 -0.12655090E-04
  0.54228479E-04 -0.15068412E-05 -0.83191259E-05  0.12152917E-04  0.28180894E-04
 -0.13266347E-03  0.17011818E-04  0.27122273E-04 -0.11484300E-03  0.10861218E-03
  0.60270579E-04  0.38435434E-05  0.44174028E-04 -0.57933574E-03 -0.54871714E-03
 -0.65181448E-03 -0.55597518E-04 -0.36050968E-03  0.16670611E-02  0.82710440E-03
  0.58810238E-02  0.19765849E-02  0.24769353E-04 -0.46154508E-05 -0.56731002E-05
 -0.84721178E-05  0.27589194E-04 -0.27155968E-04  0.13740668E-04 -0.75601987E-05
 -0.19298930E-04 -0.84740987E-04 -0.29899766E-03 -0.39155254E-03  0.13233866E-03
 -0.22854079E-03 -0.71622619E-04  0.23426079E-04  0.34151682E-06 -0.21772389E-03
  0.89912823E-05 -0.24177777E-04 -0.28168638E-04 -0.22234791E-04 -0.13670816E-04
  0.84949043E-05 -0.68474112E-05 -0.46462382E-04 -0.23741474E-04 -0.14004477E-04
  0.18987194E-04 -0.41643597E-04 -0.45140992E-05  0.15847576E-06  0.15956545E-05
 -0.95296475E-05  0.91157266E-05 -0.28150392E-04 -0.14261370E-05 -0.23568341E-05
 -0.16921922E-04 -0.20732394E-04 -0.13116408E-04 -0.58537390E-06  0.34368580E-05
 -0.11708766E-04 -0.11438337E-04 -0.14185323E-04 -0.14851081E-04 -0.17578717E-05
  0.10151658E-04 -0.20855854E-04 -0.39505040E-06  0.33019223E-05  0.89431673E-05
  0.19076332E-04  0.48490090E-05  0.23251526E-04 -0.10844537E-04 -0.85378313E-05
  0.16627288E-04 -0.46825753E-05  0.37574914E-04 -0.22444951E-06  0.32796099E-05
  0.91356955E-04 -0.11843735E-03 -0.89317475E-04  0.11266016E-03  0.19962609E-03
 -0.45005288E-03  0.37094681E-04 -0.42830288E-04 -0.61410711E-04 -0.18311781E-04
 -0.42026697E-04 -0.16025781E-05 -0.17035153E-04  0.62447191E-06 -0.50894685E-04
 -0.18675822E-04 -0.96934567E-05  0.16488260E-04  0.68910434E-04 -0.38434579E-03
 -0.35684842E-03 -0.18554559E-03 -0.10104027E-03 -0.48764108E-03  0.10295321E-03
 -0.84081919E-03 -0.13312659E-03  0.23884315E-04 -0.33212431E-04  0.14583624E-04
  0.11992126E-04 -0.83144543E-05  0.67982132E-05  0.48427160E-06 -0.16689412E-04
 -0.24494505E-04 -0.15743219E-03 -0.88962353E-05 -0.12844935E-03  0.16240694E-03
  0.39990385E-04  0.23341330E-03 -0.33357701E-03 -0.28448732E-04 -0.26751722E-04
  0.43670613E-05  0.75925363E-05 -0.92637228E-05 -0.74667669E-05 -0.25034458E-05
  0.94753378E-05  0.11431489E-04  0.67285188E-05  0.17146226E-04  0.90808504E-04
  0.23427454E-03  0.18800651E-03  0.34971922E-05 -0.54189749E-04  0.11719617E-03
 -0.16237629E-03 -0.68037284E-04 -0.16064546E-03 -0.77267760E-06  0.80549320E-05
  0.21669316E-04 -0.10390472E-04  0.14987170E-04 -0.60913719E-05  0.10870069E-04
  0.18628312E-04  0.87795923E-05  0.91598141E-05 -0.10947387E-04 -0.73005377E-05
  0.65708382E-05  0.63447647E-05  0.13356736E-04  0.54990028E-06 -0.96415381E-06
  0.26593253E-05 -0.13695327E-04 -0.11332016E-04 -0.14188770E-04  0.32704542E-05
 -0.13028806E-04 -0.18257069E-04  0.11702886E-04  0.82998193E-05  0.12161447E-04
  0.24302352E-04 -0.16562035E-05  0.11871473E-04 -0.14583003E-05 -0.19471690E-04
 -0.10167775E-04 -0.75033828E-05  0.18902997E-04 -0.12347319E-04  0.14729581E-04
  0.16596489E-04  0.26057505E-04 -0.23158277E-04  0.14119684E-04 -0.11480228E-04
 -0.14331110E-04 -0.12750666E-04  0.11939096E-04  0.12070252E-03 -0.74714359E-04
  0.15056898E-03 -0.91031513E-04 -0.55305577E-04  0.53553795E-03 -0.56457463E-04
 -0.10358096E-03 -0.11828250E-03  0.30356009E-04 -0.55913587E-05  0.18230150E-04
  0.87523299E-05  0.17810791E-05  0.64857701E-05 -0.15152012E-04  0.45690669E-05
 -0.19330625E-04 -0.45625394E-03 -0.27587670E-04 -0.45221659E-03  0.25998469E-03
  0.93839019E-04 -0.22333043E-03  0.63722571E-04  0.22950432E-03  0.11812736E-03

 -0.20605519E-04 -0.19200767E-04 -0.73263808E-06  0.12791365E-04 -0.88355605E-05
 -0.12289500E-04 -0.89845222E-05 -0.26096063E-05  0.91100634E-05 -0.22359525E-04
 -0.17975554E-03  0.57889051E-04  0.24182563E-04 -0.14690267E-03  0.25284712E-03
 -0.34110780E-04  0.12854630E-04  0.38749985E-04 -0.17063209E-03 -0.80780950E-03
 -0.95359246E-03 -0.14512797E-02 -0.40178635E-03  0.91460199E-03  0.68678579E-03
  0.19765849E-02  0.58576346E-02  0.14159580E-04 -0.11935087E-04  0.10621574E-05
 -0.36427193E-06  0.21322202E-04 -0.80946894E-04  0.23161233E-04 -0.49656589E-05
 -0.19722867E-04  0.20810643E-04 -0.20085417E-03 -0.30980262E-03  0.20171721E-03
  0.35284961E-03 -0.15594373E-03  0.33002490E-03  0.22159937E-03  0.36487242E-03
 -0.32298783E-05 -0.28776661E-04 -0.47212547E-06 -0.49746319E-05 -0.45280672E-04
  0.12730601E-05 -0.18685848E-04 -0.17766232E-04  0.31834929E-05 -0.77478461E-05
  0.23921360E-04 -0.18368279E-04 -0.61147186E-05 -0.11379494E-05 -0.52383232E-04
 -0.17048074E-04  0.12004037E-04 -0.19038315E-04 -0.15055887E-05 -0.34093281E-05
 -0.13003244E-04 -0.29953821E-04  0.14747114E-04  0.48289630E-05  0.46424716E-06
 -0.11372273E-04 -0.21521484E-04 -0.66036370E-05  0.19050898E-04 -0.12463555E-04
  0.55946812E-05 -0.21018203E-04  0.63608001E-05  0.53651552E-05  0.59915862E-05
  0.25360994E-04  0.18894198E-04  0.41617745E-05  0.92227927E-05  0.16272207E-04
 -0.39708488E-05 -0.31011083E-04  0.91709598E-05 -0.14990014E-05 -0.36549087E-05
 -0.45741330E-04  0.18052144E-04  0.15587171E-04  0.21743026E-03 -0.38574184E-03
 -0.12010741E-03 -0.96518351E-05  0.48699559E-05 -0.23652491E-03 -0.46989804E-05
 -0.25037566E-04  0.32617631E-04  0.21369356E-04  0.27197134E-04 -0.48669618E-04
 -0.33040151E-05  0.10763996E-04 -0.40766479E-04  0.17275294E-04  0.12885823E-03
  0.59010770E-03 -0.33180235E-03  0.28834416E-03 -0.41895742E-03  0.10089670E-03
 -0.34254468E-03  0.30349881E-03 -0.98800190E-06  0.39013155E-05  0.12920553E-05
 -0.88609983E-05  0.57611662E-05 -0.14405069E-05  0.13211160E-04 -0.10486836E-04
  0.11301812E-04 -0.97444672E-04 -0.65689466E-04  0.38734077E-04  0.44672308E-04
  0.30069435E-03 -0.16564940E-03 -0.24586896E-03  0.10117495E-03  0.13992480E-03
 -0.13139637E-04  0.41141648E-04 -0.16961985E-04 -0.14238736E-05 -0.43036890E-04
  0.17650559E-04  0.26294061E-06 -0.16723004E-04 -0.23632991E-04 -0.16810255E-04
 -0.38756167E-04  0.49719605E-04  0.15684017E-03 -0.12933311E-04 -0.19256294E-03
 -0.18264501E-03 -0.35449516E-04  0.26997707E-03  0.10295202E-04 -0.94948523E-05
  0.14007657E-04 -0.13488647E-04  0.14047626E-05  0.14471491E-04  0.70789119E-05
 -0.70558491E-05  0.17206967E-04  0.60349222E-05  0.87685120E-05 -0.66007110E-05
  0.39295037E-06 -0.79730424E-05  0.85696877E-05  0.17850780E-04  0.21932527E-04
  0.24330762E-05  0.13686102E-05 -0.52284194E-05  0.85150122E-05 -0.43778411E-05
 -0.59180873E-06 -0.12894406E-04  0.44747709E-05 -0.19831696E-05 -0.24597393E-05
 -0.10197391E-04  0.11257971E-04  0.16138672E-04 -0.17977680E-04  0.16239559E-04
  0.64717094E-05  0.20099987E-05 -0.44643114E-05  0.10157413E-04  0.31141843E-04
 -0.13417285E-04  0.18235382E-04 -0.17119251E-04 -0.96124379E-05  0.22089925E-04
 -0.33218384E-05  0.65686495E-05  0.34121398E-04 -0.76863854E-04  0.97470940E-04
 -0.42021304E-03  0.49826862E-04 -0.70529388E-03  0.13628736E-02  0.93540552E-04
 -0.25227137E-03 -0.19024552E-03  0.13925002E-04  0.61464946E-05  0.12858703E-04
 -0.17328256E-04  0.12296191E-04  0.23574596E-04 -0.23033445E-05  0.50027228E-05
 -0.16989926E-04 -0.77433401E-03 -0.18376193E-03 -0.10798818E-03  0.27935802E-03
  0.14025803E-03 -0.40424150E-03 -0.14974932E-04  0.45961852E-03 -0.17345201E-03

 -0.75326964E-06  0.75798180E-06 -0.15847399E-05  0.20145833E-05 -0.24546446E-05
  0.52279631E-06  0.99105098E-06 -0.50056374E-06  0.19500980E-06 -0.71056171E-06
 -0.23242289E-05  0.10854633E-05 -0.13360870E-06 -0.20950930E-05  0.27240345E-05
 -0.53990349E-06  0.34569311E-05 -0.13452229E-05 -0.32228203E-04 -0.34460403E-04
 -0.85861747E-05 -0.76073740E-04  0.30838374E-04  0.22877285E-04  0.17026027E-04
  0.24769353E-04  0.14159580E-04  0.30346865E-04  0.35633545E-05 -0.29616370E-06
 -0.13385709E-05 -0.59648455E-06  0.13602121E-05  0.69384323E-06 -0.51566299E-05
 -0.26239334E-05 -0.13158324E-04  0.57562590E-04 -0.27706722E-04  0.63206678E-04
  0.16036380E-04 -0.72393368E-05  0.13967603E-04  0.22557878E-04  0.92704202E-04
 -0.39841022E-06  0.42678005E-05 -0.84407977E-06 -0.31341677E-06  0.35843640E-05
  0.10122773E-06  0.94764512E-07 -0.25792325E-05 -0.64226425E-06 -0.85636559E-07
  0.12967016E-05 -0.12729039E-05 -0.52242767E-06  0.53615656E-06  0.29410325E-06
 -0.67042813E-06 -0.49066321E-06 -0.15794866E-06 -0.19349912E-05 -0.30670754E-06
 -0.88862636E-06  0.12298408E-05  0.41263937E-06 -0.43416055E-06  0.15436773E-05
  0.11623938E-05  0.17020463E-06 -0.77824224E-06 -0.19601348E-05  0.21641876E-05
  0.81905748E-06 -0.21680239E-05  0.86043551E-06  0.16196978E-05  0.93670243E-06
 -0.26973951E-06 -0.12824592E-05  0.44230226E-06 -0.10649783E-05 -0.78726721E-06
  0.15459994E-05  0.34241358E-06  0.15069858E-05 -0.76143232E-06  0.11271920E-05
  0.29762244E-05 -0.31561972E-05 -0.14568288E-04  0.28389061E-05  0.50670039E-05
 -0.50895757E-05 -0.15832071E-05  0.11940241E-04 -0.10587224E-04  0.56977512E-06
 -0.55848769E-06  0.55928372E-06  0.30477352E-06 -0.82070532E-06  0.13433519E-05
 -0.16608951E-05  0.16886404E-05  0.11088673E-05  0.25402041E-04 -0.17866904E-04
 -0.20120634E-05 -0.48261074E-05 -0.16808543E-04  0.10904575E-04 -0.75339433E-05
 -0.32308287E-04  0.39211394E-06  0.22663066E-05  0.79421027E-06  0.20026258E-05
  0.14457552E-05 -0.24419946E-05  0.40299907E-06 -0.21543188E-05  0.76114947E-06
  0.85818364E-06  0.38413953E-05  0.15485719E-04 -0.91066015E-05 -0.26174501E-04
  0.41953757E-04 -0.93077810E-05 -0.15807782E-04 -0.82812473E-05  0.18062687E-05
  0.21760153E-05  0.97373025E-06 -0.75830963E-06 -0.11590894E-05 -0.68205164E-06
  0.16279273E-05  0.53271775E-06 -0.36255251E-07 -0.12478848E-05 -0.21760824E-05
 -0.44170962E-05  0.17753981E-04  0.36047479E-05 -0.60251007E-05  0.14522392E-05
 -0.10379114E-05 -0.29619544E-05 -0.17060506E-04 -0.22359827E-05  0.73992318E-06
 -0.47381894E-06 -0.14406120E-06 -0.50009037E-06  0.19460249E-06  0.56082717E-06
 -0.40321280E-06 -0.15698667E-05  0.77124222E-06 -0.76580422E-06  0.92062196E-06
  0.13955433E-05 -0.17092899E-05  0.61096836E-07 -0.14689989E-05 -0.10301195E-05
  0.62349232E-08 -0.16090418E-06  0.10824990E-05 -0.96336603E-06 -0.46484826E-06
  0.86014415E-06 -0.17346159E-06 -0.94214582E-06  0.68193180E-06  0.89318410E-06
 -0.72482339E-06 -0.70828353E-06  0.72912767E-06 -0.18939833E-05  0.18401168E-05
  0.18607555E-06  0.71684139E-06 -0.97050775E-06  0.86985247E-06  0.10182929E-05
  0.16693637E-05  0.25297065E-05  0.31737890E-06  0.40746786E-06 -0.96391657E-06
  0.25542804E-05  0.73975480E-06  0.20815986E-05 -0.17945943E-04  0.39312657E-04
  0.40771114E-04  0.50648882E-04 -0.27430153E-04 -0.60434491E-04  0.22797981E-04
  0.83396896E-04 -0.47338014E-05 -0.31186540E-07 -0.51707567E-06 -0.29077990E-06
 -0.10138178E-05  0.54641891E-06  0.69105652E-06  0.51625739E-06 -0.48486932E-06
  0.13887872E-06  0.11190913E-04 -0.50984823E-05  0.39567096E-05  0.40123843E-04
  0.31536048E-05 -0.16822885E-04 -0.23253828E-05  0.14967232E-04 -0.17959767E-04

  0.12634076E-05 -0.39521491E-05 -0.82857424E-06 -0.14227349E-05  0.50149369E-05
  0.18892695E-05 -0.81718341E-06 -0.12256360E-05  0.38484223E-06  0.31321288E-06
  0.42701102E-05  0.60747470E-06  0.22259077E-05 -0.23217158E-05 -0.11438000E-05
  0.24875723E-05  0.75071530E-07 -0.18000220E-05 -0.46640267E-04 -0.10600605E-04
  0.27283610E-04 -0.26611944E-05  0.68518981E-04 -0.31894339E-04  0.28907527E-04
 -0.46154508E-05 -0.11935087E-04  0.35633545E-05  0.45912475E-04 -0.44228062E-05
 -0.26663720E-05  0.44974820E-05  0.40394529E-05 -0.41802740E-06 -0.29905393E-05
 -0.60914239E-05  0.44000094E-04  0.34145873E-04 -0.19277104E-04  0.27621284E-04
  0.23963578E-04  0.69639791E-05 -0.19508080E-04  0.78964968E-04  0.27024394E-04
  0.32943974E-05  0.34885688E-05  0.25339999E-05 -0.10819625E-05  0.51574899E-05
 -0.22816038E-05  0.47307912E-05  0.60514717E-06  0.63846178E-06  0.96897072E-06
 -0.18372336E-05  0.14885070E-06 -0.11167394E-05 -0.10883719E-05  0.94225327E-06
 -0.20427243E-05  0.73794525E-06 -0.34648929E-06 -0.90899770E-06  0.10373188E-05
 -0.50628575E-06  0.11329101E-06 -0.11007784E-05  0.49651936E-06  0.69633525E-06
  0.41824624E-06 -0.12449267E-05  0.40464933E-06  0.47608305E-06  0.17057212E-06
 -0.21375746E-05 -0.98471048E-06  0.32020452E-06  0.91005242E-06 -0.29553165E-06
 -0.15900928E-05  0.78899525E-06 -0.30558718E-05  0.20978107E-05  0.22256164E-06
  0.16349108E-05 -0.53039689E-06 -0.10677396E-05  0.12372980E-05 -0.33145226E-05
  0.40053796E-06 -0.66840655E-05  0.44087956E-05 -0.83995047E-05  0.32181830E-05
  0.23357330E-05  0.14002199E-04  0.50402732E-05 -0.18638207E-05 -0.15359011E-05
 -0.50376573E-06  0.52239390E-06 -0.10989746E-05  0.14661269E-05  0.11399619E-05
 -0.12376651E-05 -0.84923758E-06  0.21005500E-06 -0.18514478E-04  0.15066625E-04
  0.10957015E-05 -0.82560532E-05  0.16684760E-04 -0.14935279E-04  0.11508663E-04
  0.20319133E-05  0.20774464E-04  0.13211940E-05 -0.76596529E-08 -0.70007374E-06
 -0.18287951E-06 -0.10621112E-05 -0.16754060E-05 -0.11005320E-05  0.33015862E-06
  0.48329158E-06  0.17248400E-05  0.93245401E-05 -0.26300703E-04  0.47406799E-05
 -0.10333451E-04 -0.19084518E-04 -0.18006957E-04  0.15384370E-04  0.15657450E-04
  0.12019922E-08  0.22832237E-05 -0.39021906E-06  0.28664535E-06 -0.26110738E-05
  0.18117006E-05  0.67922078E-06 -0.12695750E-06 -0.33030600E-05 -0.26957175E-05
  0.93452252E-05  0.14377075E-05  0.48147605E-05 -0.12586084E-04 -0.28819189E-05
  0.19600542E-04 -0.35466004E-05  0.84041346E-05  0.56973765E-06 -0.49392466E-06
 -0.25657493E-05  0.24012866E-05 -0.19360056E-06 -0.19371702E-05  0.22398541E-06
 -0.11877115E-05 -0.83060061E-06 -0.82660601E-06 -0.11403526E-06  0.28166570E-06
  0.10376220E-05 -0.47146045E-05  0.19785965E-05 -0.42132252E-06  0.36408408E-06
  0.19171365E-05  0.22964507E-06 -0.13831246E-06  0.12313777E-06  0.38304623E-06
  0.65883672E-06 -0.31482985E-06 -0.15103941E-05  0.31157811E-06  0.62857309E-06
 -0.13350131E-05 -0.39716672E-05 -0.23875252E-06  0.78180569E-06 -0.20429073E-05
  0.82308719E-06  0.12903474E-05 -0.70114262E-06 -0.14608655E-05  0.85984623E-06
  0.23328038E-05  0.14996251E-05 -0.10355922E-05  0.23062154E-05 -0.13176721E-05
 -0.17679293E-05  0.18270708E-05  0.46928268E-07 -0.97516017E-06  0.83098820E-04
  0.36511143E-04  0.42514082E-05 -0.30563491E-04 -0.40147859E-04  0.79814696E-04
  0.39318122E-04 -0.56080332E-04  0.14726728E-05 -0.26204948E-05 -0.25296406E-05
  0.68150268E-06  0.95686432E-07 -0.76546892E-06  0.11131684E-05 -0.13524566E-06
 -0.10513758E-05  0.17529463E-04  0.87204745E-05  0.61118391E-05  0.39983413E-04
 -0.10673869E-05 -0.14604686E-04 -0.17824399E-04 -0.11450612E-04 -0.43653805E-05

 -0.29659191E-05 -0.31206188E-06  0.12246785E-05  0.13923582E-05 -0.63771492E-06
 -0.59348873E-05 -0.22502161E-06  0.51734769E-06  0.74313326E-06  0.31071429E-05
  0.30593474E-05  0.80242471E-05  0.17467050E-05  0.22558288E-05  0.95760155E-07
  0.17420794E-05  0.28091444E-05 -0.20185688E-05  0.69953292E-05  0.31984001E-04
 -0.14315114E-04  0.76964536E-04 -0.58213037E-04  0.99947952E-05 -0.26178767E-04
 -0.56731002E-05  0.10621574E-05 -0.29616370E-06 -0.44228062E-05  0.50828746E-04
  0.11445863E-05  0.14878746E-06 -0.56670611E-05 -0.20151625E-05  0.14530806E-05
  0.60107429E-05 -0.44088577E-04 -0.68850366E-04 -0.21531915E-04 -0.27109284E-04
 -0.93975077E-05 -0.18686899E-04  0.64677690E-04 -0.66282301E-04 -0.64201453E-04
 -0.14257515E-05 -0.11145604E-05 -0.13064207E-05 -0.24935923E-05 -0.10121204E-05
 -0.19465343E-05 -0.92004378E-06  0.87564440E-06 -0.24932053E-05 -0.27931645E-05
 -0.32055726E-05  0.21280564E-05  0.79551529E-06 -0.78413767E-06 -0.34346894E-05
  0.10842991E-06  0.95236573E-06 -0.20078640E-06 -0.78132689E-06  0.56578991E-07
 -0.81085170E-06 -0.12887357E-05 -0.12774339E-05  0.39389837E-05 -0.26414416E-06
 -0.54670547E-06  0.65731320E-07  0.25406580E-05 -0.58180244E-06  0.19199633E-05
  0.33384062E-06 -0.14240747E-05  0.23112514E-05 -0.80252485E-06  0.90243983E-06
  0.14769055E-05 -0.98689962E-07  0.71307464E-06 -0.32733631E-05 -0.14100216E-05
  0.10460033E-05 -0.13942464E-05 -0.52286312E-06 -0.18759927E-06  0.28622350E-05
 -0.72637824E-05  0.96447193E-05  0.22515973E-05  0.30148327E-06 -0.30964160E-04
  0.55985765E-04  0.61008448E-05 -0.18965909E-04  0.16545954E-05  0.32716652E-06
 -0.69001128E-06  0.40756876E-05  0.31121287E-05  0.14756525E-06 -0.10659231E-05
  0.20465343E-05  0.24842940E-05 -0.39293584E-05  0.69537478E-05  0.24784942E-05
  0.54139917E-04 -0.36672558E-04 -0.20453100E-04 -0.25759578E-04  0.89824346E-05
  0.12470747E-04 -0.14788515E-04  0.15572439E-05  0.15084801E-05  0.44756250E-05
  0.74248822E-06 -0.55094959E-06 -0.19056463E-05  0.15942663E-05 -0.32391935E-06
 -0.21947189E-05 -0.23082730E-05  0.41912047E-05 -0.62577150E-05 -0.14837850E-04
 -0.82022916E-05  0.38857785E-05  0.70591641E-05 -0.87360788E-05  0.11928201E-04
 -0.22053460E-05  0.44139787E-05  0.12504262E-05  0.79809552E-07 -0.49824522E-06
  0.46105865E-06  0.11836825E-05  0.13159775E-05 -0.23737957E-05  0.17984996E-04
  0.56561908E-06 -0.82115118E-06 -0.13862301E-05  0.22737642E-04 -0.54531806E-04
 -0.15211125E-04 -0.10039663E-05  0.52511861E-05  0.48268985E-06 -0.18668197E-05
 -0.43023552E-05 -0.15936979E-05 -0.21134767E-05  0.27705728E-05 -0.21571217E-05
 -0.19480064E-06 -0.66417379E-06  0.19572091E-05  0.10880470E-05  0.24420742E-06
 -0.12694686E-05  0.15892821E-05 -0.15533996E-05  0.24801938E-06 -0.79422221E-06
  0.66024432E-06 -0.85701208E-06 -0.17588155E-05 -0.53282260E-06 -0.84211929E-06
 -0.42525609E-06  0.35243587E-05 -0.86769723E-08 -0.73179135E-06 -0.39580001E-06
 -0.27911310E-06  0.64841385E-06  0.19619481E-05  0.46906419E-07  0.53947062E-07
 -0.33902977E-05  0.61604522E-06 -0.61102581E-06  0.15137093E-05  0.16076377E-05
 -0.52110820E-06  0.20140009E-05 -0.52621050E-06 -0.17554023E-05  0.11670268E-05
  0.19646556E-05 -0.24795292E-05  0.18627878E-05  0.13969557E-04 -0.21914284E-05
 -0.27562770E-04  0.71297208E-04 -0.38557310E-04  0.10073424E-03 -0.11988503E-04
 -0.33756647E-04  0.44572341E-04 -0.14020666E-05 -0.29501612E-05  0.33249346E-06
 -0.57436663E-06  0.93000890E-06 -0.77654550E-06  0.12723975E-06  0.42875393E-06
  0.11898995E-06 -0.15460934E-04 -0.19036881E-04  0.12433521E-04  0.18962894E-04
  0.23389406E-05 -0.80242581E-05 -0.26491256E-05 -0.56244960E-05 -0.14217243E-04

  0.54246654E-07  0.11451824E-05  0.18476862E-06 -0.31295522E-06  0.13616984E-05
 -0.72701717E-06 -0.73046524E-06 -0.11935454E-05 -0.43995213E-06 -0.58886591E-06
  0.16367765E-05 -0.20441187E-05 -0.22068160E-05  0.47794690E-05  0.21040931E-05
  0.67641366E-06 -0.15997703E-05  0.25796580E-05  0.34017619E-04  0.19888274E-04
  0.12349130E-04  0.46634201E-04  0.59032138E-05 -0.17087747E-04 -0.17164252E-04
 -0.84721178E-05 -0.36427193E-06 -0.13385709E-05 -0.26663720E-05  0.11445863E-05
  0.47006645E-04 -0.16457115E-04 -0.19536060E-04 -0.35638919E-07  0.60726267E-05
  0.21112946E-05 -0.20224282E-04  0.19134113E-05  0.30344536E-04  0.54772382E-04
 -0.70094221E-05 -0.53511707E-04  0.33061321E-04 -0.32442390E-04 -0.15134109E-04
  0.14944908E-06  0.12662906E-05 -0.67253531E-07 -0.61185999E-05  0.28956202E-05
  0.29145256E-05  0.30803437E-05 -0.11779662E-05  0.23334180E-06  0.82117662E-06
  0.15801716E-05  0.12605425E-05 -0.21356296E-05  0.30689618E-05 -0.15983760E-05
  0.49560196E-06 -0.16816672E-05 -0.47829984E-06  0.60362409E-06 -0.29052514E-06
 -0.22454244E-06 -0.16294950E-06  0.15042546E-05 -0.60870379E-06 -0.76507213E-06
 -0.95558554E-06 -0.40108165E-06  0.17928680E-05 -0.97196484E-06  0.55589272E-06
 -0.27637130E-05 -0.29089280E-06  0.36763799E-05 -0.15356600E-05 -0.14061687E-06
  0.77492285E-06  0.11667584E-05  0.20065391E-06 -0.10971657E-05 -0.32905493E-06
 -0.23151002E-05  0.26090152E-05 -0.14148400E-05  0.29547143E-06 -0.22191246E-06
 -0.16419369E-04  0.11611909E-04 -0.91511254E-05  0.17562156E-05  0.24712704E-04
  0.21863546E-04 -0.12049117E-04  0.13535327E-04 -0.93460068E-05 -0.16197388E-05
 -0.22202087E-05  0.58241351E-06 -0.56280858E-05  0.29682973E-05  0.39281248E-06
  0.11550752E-06 -0.11252113E-07  0.84108078E-06  0.16500216E-04 -0.17467489E-04
 -0.37141019E-04  0.12654239E-04  0.41406727E-05 -0.10169853E-04 -0.11293490E-05
  0.14048467E-04 -0.16511651E-04 -0.18091327E-05 -0.39552315E-06 -0.78385668E-06
 -0.16168256E-05  0.89183858E-06  0.16434580E-05 -0.83160395E-06 -0.32051174E-07
 -0.10569391E-05 -0.59581329E-07 -0.22071317E-04 -0.42233357E-05 -0.17513074E-04
 -0.27477131E-04  0.10953859E-05  0.19147967E-04 -0.46317262E-05 -0.92057635E-05
 -0.26026908E-05  0.10079260E-05  0.13948598E-05 -0.21939203E-05  0.10772074E-05
  0.82089840E-06  0.98765446E-06  0.52831297E-07 -0.15780153E-05 -0.45394780E-05
  0.44226538E-05  0.21493818E-05  0.12288551E-04  0.84848672E-05 -0.15702283E-04
  0.19990021E-05  0.95548928E-05  0.51728177E-05  0.18057527E-06 -0.20159934E-05
  0.12943881E-05  0.26629807E-05 -0.52391415E-06  0.10616523E-06  0.42619746E-06
  0.16592162E-05  0.33508958E-06 -0.11448266E-05 -0.19003524E-05 -0.12072383E-05
  0.11393760E-05  0.10524218E-05  0.72448095E-06 -0.10366720E-05  0.10402534E-05
  0.97917226E-06  0.71970748E-06 -0.15275865E-05 -0.33048864E-06 -0.81222251E-06
  0.22161431E-05  0.70267320E-06  0.21872430E-06 -0.15170678E-06 -0.68787353E-06
 -0.86112359E-06  0.48770742E-06  0.51732041E-06 -0.21244659E-05  0.75339772E-06
  0.19860145E-05  0.63283281E-06  0.50217632E-06  0.23293075E-05 -0.59143425E-06
 -0.27675868E-05 -0.16600897E-05 -0.37895343E-06  0.53032532E-06  0.22526156E-05
  0.42519179E-06  0.38180714E-06 -0.30303745E-05 -0.63459477E-04 -0.26816896E-04
 -0.84470466E-06 -0.12116002E-04  0.27539557E-04 -0.53707158E-04  0.41894551E-05
  0.36926454E-05 -0.83984074E-05  0.50302205E-06  0.39770972E-06  0.10217279E-05
  0.21874233E-05 -0.22927663E-05  0.18077121E-05 -0.13571713E-05  0.91062738E-06
  0.27598834E-06  0.19159524E-04  0.34467808E-05  0.14227514E-05 -0.14499129E-04
 -0.52801371E-05  0.29130775E-04 -0.39910111E-05 -0.73153898E-05 -0.57595814E-05

  0.28529048E-05 -0.28437887E-05 -0.32815908E-06  0.77052323E-06 -0.65443792E-06
  0.40337576E-06  0.77855288E-06 -0.16390898E-05 -0.33256682E-05  0.23387368E-05
 -0.48026292E-05 -0.20046929E-05  0.30901917E-05 -0.14686649E-04  0.85156925E-05
 -0.24345239E-05  0.10229575E-05  0.57277512E-05 -0.36055764E-04 -0.17963718E-04
 -0.30720667E-04  0.18177059E-04 -0.38012760E-04  0.31754389E-06  0.36820328E-04
  0.27589194E-04  0.21322202E-04 -0.59648455E-06  0.44974820E-05  0.14878746E-06
 -0.16457115E-04  0.65841847E-04 -0.18483869E-04  0.39620896E-05  0.22929022E-06
 -0.12275680E-05 -0.36041790E-05 -0.48498123E-04 -0.17341269E-04 -0.48653506E-05
  0.61522214E-04 -0.31742881E-04  0.52879682E-04  0.54520906E-04 -0.25189044E-04
 -0.24884132E-05 -0.10850443E-04  0.22169587E-05  0.24242222E-05 -0.68369279E-05
  0.36009758E-05 -0.65721338E-05 -0.12798247E-06  0.10579554E-05  0.60951246E-06
 -0.29290895E-05 -0.19071034E-05  0.33429074E-05 -0.82071213E-05 -0.93422397E-06
  0.54606569E-06 -0.19423392E-06 -0.34962734E-05 -0.12501475E-06 -0.25060157E-06
 -0.10346351E-05  0.47578292E-06 -0.17199557E-05 -0.13053690E-05  0.12567446E-05
  0.12755085E-06 -0.15071940E-05 -0.10477641E-05 -0.60074747E-05 -0.71894767E-06
  0.47722567E-06 -0.13808083E-05  0.23172945E-05  0.26010285E-06 -0.15879015E-06
 -0.14779253E-05 -0.11036196E-05 -0.12164652E-05  0.73273297E-06 -0.63550295E-06
  0.61199987E-05  0.52977790E-07  0.34663085E-06  0.28121288E-06 -0.30781837E-05
  0.27493413E-05  0.34679139E-06 -0.80329425E-06  0.65207541E-05 -0.47330428E-04
  0.32461458E-05  0.22126869E-04  0.54008641E-05 -0.96570913E-05  0.13506470E-05
 -0.25813888E-05 -0.10686953E-05  0.90572811E-06 -0.65153201E-05  0.29416824E-06
 -0.17439629E-05 -0.19417959E-05  0.31766494E-05 -0.17923240E-04 -0.10978695E-04
 -0.16214838E-04  0.46148803E-04 -0.22519072E-04 -0.33682363E-04 -0.28730169E-04
 -0.45328499E-04 -0.11773626E-04  0.13652120E-05 -0.70646557E-05  0.17286060E-05
  0.59075635E-06 -0.22846175E-05 -0.26719530E-05  0.29164633E-05  0.20032008E-05
  0.31996170E-05 -0.13463373E-04  0.83951300E-06  0.10197399E-04  0.38915453E-04
  0.38187648E-04 -0.66228193E-05 -0.42712603E-04  0.14356459E-04  0.20858131E-04
 -0.98445448E-06 -0.11508540E-05  0.10019130E-05 -0.45363779E-06 -0.59411087E-05
  0.35580621E-05  0.15278946E-05 -0.12895282E-05  0.92999750E-06 -0.74272225E-05
 -0.34609503E-04  0.16616959E-04  0.87466010E-05 -0.22794135E-04  0.56720348E-05
 -0.22391214E-05 -0.17996440E-05  0.75812057E-05 -0.20776406E-05 -0.74826317E-06
 -0.69721712E-06 -0.39731435E-06 -0.27724692E-05  0.24090653E-05  0.23186744E-05
 -0.53908356E-06  0.24056736E-06 -0.20494144E-06  0.33743160E-05  0.31800869E-06
 -0.17347913E-08  0.15081614E-05  0.49903689E-06  0.27734441E-06 -0.29199650E-07
 -0.19425478E-05 -0.49005187E-06  0.71450539E-06 -0.57608924E-06  0.74681069E-06
  0.17959303E-05 -0.35616921E-06 -0.11241845E-05 -0.35783874E-06 -0.75162931E-06
  0.60013849E-06 -0.18314389E-05  0.15318971E-05  0.11743241E-06 -0.11063903E-05
  0.18830888E-05 -0.14405761E-05 -0.37416173E-06 -0.11214532E-05  0.49656865E-05
 -0.57598839E-06  0.27908322E-05 -0.36452404E-06 -0.35505093E-05  0.18361434E-05
 -0.19469375E-06  0.42045912E-05  0.19253152E-05 -0.63560394E-05  0.10287473E-03
 -0.70920693E-06  0.22735034E-04 -0.76804339E-04  0.91279395E-04  0.65947266E-04
  0.17538006E-04 -0.13074693E-04  0.15761680E-05 -0.50491144E-06  0.97335451E-06
 -0.60746712E-06  0.34125870E-05 -0.32742592E-06  0.40553077E-06  0.32330297E-06
 -0.17077608E-05  0.31643659E-05  0.18981467E-04 -0.20388598E-04  0.16127498E-04
  0.18501622E-04 -0.36813054E-04  0.57635913E-05 -0.90335770E-05  0.51224411E-05

  0.36811510E-07 -0.23491184E-05  0.12952316E-05 -0.48426598E-06 -0.25295039E-05
  0.44431862E-05  0.12196794E-06  0.10530707E-05  0.14452269E-05 -0.15684182E-05
  0.72536105E-05  0.54689985E-06  0.36959812E-05  0.59355968E-05 -0.18584126E-04
  0.34531614E-05 -0.15678395E-05 -0.69627153E-05  0.19981510E-04  0.13397652E-04
  0.49847427E-04  0.24066309E-04 -0.16201518E-05 -0.12332194E-04  0.90774685E-05
 -0.27155968E-04 -0.80946894E-04  0.13602121E-05  0.40394529E-05 -0.56670611E-05
 -0.19536060E-04 -0.18483869E-04  0.80677897E-04 -0.56960633E-06  0.35497244E-06
 -0.33392609E-05  0.51893027E-04  0.50970120E-04 -0.31533805E-04 -0.74595705E-05
 -0.47053727E-04  0.10966326E-03 -0.83210475E-04  0.26400217E-04  0.65989740E-04
 -0.29330283E-06  0.50308894E-05 -0.21882668E-05  0.38953167E-05  0.53545164E-05
 -0.41761294E-05  0.33811570E-05  0.24370315E-05 -0.11023328E-05 -0.45617525E-06
 -0.12415637E-05  0.50729183E-05 -0.13849356E-05  0.48296879E-06  0.75571343E-05
 -0.64478346E-06  0.14004564E-05  0.15632644E-05  0.73503564E-06  0.32483313E-07
  0.42457621E-05  0.85669760E-06 -0.12497976E-05  0.53366064E-05  0.68726803E-07
  0.14838894E-05  0.26323976E-05 -0.22935382E-06 -0.21110031E-05  0.24138608E-05
  0.19926635E-05  0.26383972E-05 -0.11840660E-04  0.16121915E-05 -0.85576755E-07
  0.10703742E-05  0.34179805E-05 -0.17273632E-05  0.55011898E-05  0.26616088E-05
  0.27322078E-05 -0.44374844E-05  0.73723403E-06  0.29964433E-06 -0.13895204E-05
 -0.71670859E-05  0.18785362E-04 -0.68038434E-05  0.24224371E-04  0.13029965E-04
 -0.96054074E-04 -0.68098520E-05  0.24329308E-05  0.39241439E-05 -0.55006840E-06
  0.20814495E-05 -0.63203423E-05  0.23072800E-05 -0.34351869E-05  0.23340569E-05
  0.37359825E-06  0.82303859E-06  0.26386067E-05 -0.25132101E-04 -0.15396899E-04
  0.53653014E-04  0.52156903E-04 -0.50128273E-04  0.96304901E-04  0.17949970E-04
  0.40933272E-04 -0.20234971E-04 -0.60799969E-06 -0.17821920E-05  0.66057865E-07
 -0.85678022E-06  0.20986973E-05  0.33471285E-05 -0.64530557E-06  0.13272277E-05
  0.44234646E-06 -0.87383425E-06 -0.17580619E-04  0.31398256E-04  0.14446846E-04
  0.40977900E-04 -0.73805395E-05 -0.39644968E-04 -0.46008820E-04  0.46378025E-04
  0.16885880E-05 -0.14871327E-05 -0.89978393E-05  0.15113432E-05  0.44308234E-05
 -0.48163785E-05 -0.86720906E-06  0.18818705E-05  0.56751929E-06 -0.78844408E-05
  0.31336765E-04 -0.40048694E-04 -0.18244586E-04  0.10893121E-04  0.20501430E-04
  0.13896757E-04 -0.94473953E-05 -0.29590991E-04  0.16390790E-05  0.15250505E-05
 -0.26692641E-05  0.19792763E-05  0.13701826E-05 -0.10338588E-05 -0.10073801E-05
 -0.10659235E-05  0.47392303E-07 -0.98989429E-06 -0.91210865E-06 -0.16995560E-06
  0.78454979E-08  0.15361949E-05 -0.31835083E-05  0.83487490E-06  0.82573529E-07
 -0.16200790E-06  0.11841152E-05  0.10489498E-05  0.45454696E-05  0.14400906E-05
  0.44932790E-07  0.93071071E-07 -0.95131437E-06  0.90783148E-06  0.10179261E-05
  0.16694856E-05 -0.20611406E-05  0.90527917E-06  0.37783443E-05  0.27637604E-06
 -0.63663605E-05  0.53251981E-06 -0.15894510E-05 -0.45870156E-05 -0.25521848E-05
  0.67480052E-05  0.35510441E-06  0.29407040E-05 -0.17070951E-05 -0.56881832E-05
 -0.27973685E-05 -0.51983360E-06  0.26869654E-05  0.37533728E-04  0.93718495E-05
 -0.87859182E-04 -0.81058156E-05 -0.12251720E-04  0.94967724E-04 -0.19457692E-04
  0.21142167E-04 -0.22103833E-04  0.57445006E-06  0.81654903E-06 -0.31419560E-05
  0.10216888E-05  0.14740491E-05 -0.52844132E-05  0.18777429E-05 -0.37529930E-05
 -0.75657287E-06  0.19789029E-04  0.51029391E-05  0.10203490E-04  0.31684051E-04
 -0.13770885E-04 -0.14440817E-04  0.83812028E-05 -0.16094247E-04 -0.33525024E-05

  0.66381827E-06  0.31373537E-05 -0.41949233E-06  0.74923937E-06  0.55074521E-06
  0.10392596E-05 -0.71639459E-06 -0.13888931E-05  0.79139281E-06  0.14577333E-05
 -0.48744627E-05 -0.55620094E-06  0.16750276E-05 -0.28836625E-05  0.36106032E-05
 -0.53833068E-06  0.10008395E-05 -0.17053755E-05 -0.97421495E-05 -0.33862271E-04
 -0.19062645E-04 -0.14443452E-04 -0.18418713E-04 -0.31124511E-06  0.44086881E-05
  0.13740668E-04  0.23161233E-04  0.69384323E-06 -0.41802740E-06 -0.20151625E-05
 -0.35638919E-07  0.39620896E-05 -0.56960633E-06  0.27993883E-04 -0.26891733E-05
  0.19159400E-05 -0.74307476E-05  0.17237611E-04 -0.59267016E-04  0.49192172E-04
  0.28331434E-04 -0.40051193E-04  0.17994862E-05  0.22015055E-04  0.29075853E-04
 -0.43333603E-06 -0.65329849E-05  0.60901355E-06  0.45633982E-05 -0.54190114E-05
  0.28422135E-05 -0.13907427E-05  0.11599220E-05 -0.75790050E-06  0.21625263E-05
  0.74735513E-06 -0.10373582E-05  0.25612319E-06 -0.97693015E-06  0.17052368E-06
 -0.62139090E-06 -0.33868132E-06 -0.18480925E-05  0.87628954E-06  0.30463222E-06
  0.61932056E-06 -0.11188857E-06 -0.62909974E-06 -0.84439461E-07 -0.69711321E-06
 -0.56492467E-07 -0.20403289E-06  0.27720906E-05  0.21152777E-05  0.33341674E-07
 -0.23035290E-05  0.24028547E-05  0.88860233E-06  0.33365349E-06 -0.11009647E-06
  0.19891812E-06 -0.46885647E-06  0.66105295E-06  0.28078562E-05  0.11361618E-05
  0.11778202E-05 -0.14814247E-05  0.79454982E-06 -0.64822202E-06 -0.32477451E-05
 -0.11377468E-04 -0.50708031E-05  0.10147120E-04  0.35881216E-05 -0.27222886E-04
  0.83525188E-05  0.41417942E-05 -0.18540273E-05 -0.54301920E-06 -0.70280280E-06
 -0.29947633E-05 -0.14318770E-05 -0.23194940E-05 -0.11174208E-05  0.21782699E-05
  0.14736757E-05 -0.11191044E-05  0.12658236E-05 -0.84238520E-05 -0.59064187E-05
 -0.15108110E-04  0.28594988E-04 -0.51896222E-05  0.12968027E-04 -0.12600423E-04
 -0.29132135E-04 -0.10910834E-04  0.18384845E-05  0.24336118E-06  0.62013293E-06
  0.32129116E-06 -0.18239908E-05 -0.87694291E-06 -0.39514538E-06  0.20553813E-05
  0.37803786E-05  0.79365963E-05  0.94641929E-05  0.31648754E-05  0.18987330E-04
 -0.37696048E-06 -0.31222289E-04 -0.22318669E-04  0.11190036E-04  0.11191678E-04
  0.26169096E-06 -0.13150256E-05  0.44755390E-06 -0.18477298E-05  0.12378049E-05
  0.81488965E-06 -0.11297473E-05 -0.42115335E-07  0.19119731E-06 -0.12454251E-04
 -0.18815814E-04 -0.48944645E-05  0.60891156E-05  0.13281156E-04  0.23864190E-05
  0.73945523E-05  0.19405172E-05 -0.98176255E-05 -0.12311342E-05 -0.58962399E-06
 -0.70393253E-06  0.61814213E-06 -0.19276173E-05  0.13168640E-05 -0.71725911E-06
  0.33588421E-06  0.91911604E-06 -0.12954304E-06  0.35912984E-05  0.77913472E-06
 -0.78520396E-07 -0.25990544E-05 -0.17256994E-05  0.40379641E-06  0.16827166E-06
 -0.18569849E-06  0.57442937E-06  0.19085038E-05  0.20354717E-07 -0.39590527E-06
  0.16186504E-05 -0.41218313E-07  0.26864111E-06 -0.32290365E-06  0.27515879E-07
  0.13542732E-05  0.65855853E-06  0.62276807E-06 -0.25388327E-06  0.49406461E-06
 -0.24599717E-06 -0.27606165E-05  0.11883089E-05 -0.12895260E-05 -0.87930983E-06
 -0.18302354E-05 -0.30528470E-05  0.25615230E-05  0.16871551E-05 -0.12657440E-05
 -0.10387954E-05  0.69830100E-06 -0.28480123E-05  0.26349643E-05 -0.74208943E-04
 -0.41470634E-04 -0.12912679E-04  0.25042439E-04 -0.10647151E-03  0.28333875E-04
  0.22836918E-04 -0.39180969E-04  0.79333274E-06  0.57711026E-06  0.68379819E-06
  0.49360609E-06  0.25830899E-05 -0.14793967E-05 -0.17108983E-05 -0.38766997E-06
 -0.18850420E-05  0.10018831E-04 -0.11149114E-04  0.23883143E-04  0.39550616E-04
  0.21904928E-04 -0.33776031E-04  0.72772770E-05 -0.36583931E-05 -0.88428170E-05

  0.33360419E-06 -0.41037995E-08  0.22045506E-05 -0.10824540E-05 -0.10112870E-05
  0.12952196E-05 -0.27537438E-06 -0.96717282E-06 -0.97272550E-06 -0.31344358E-05
 -0.23371989E-06 -0.51989548E-05 -0.95061142E-06  0.11198686E-05 -0.24957830E-05
  0.44305228E-06 -0.12686812E-05  0.36891487E-05  0.16246770E-04 -0.52573419E-05
 -0.13103160E-05  0.59915762E-05  0.15022552E-04 -0.97156829E-05  0.19835715E-05
 -0.75601987E-05 -0.49656589E-05 -0.51566299E-05 -0.29905393E-05  0.14530806E-05
  0.60726267E-05  0.22929022E-06  0.35497244E-06 -0.26891733E-05  0.29280957E-04
  0.38074569E-05  0.24229700E-05 -0.61547211E-04  0.43633197E-04 -0.60119749E-04
  0.80724863E-05 -0.33829617E-04 -0.14689147E-04 -0.36964192E-04 -0.93847502E-04
  0.13426240E-05 -0.56816053E-06 -0.21520193E-05 -0.16077052E-05  0.65419509E-06
  0.59886542E-06  0.24710308E-06  0.52709763E-06  0.27246146E-05  0.13602199E-05
 -0.50214251E-06  0.87191286E-06 -0.17603484E-05 -0.26744195E-06  0.39088293E-06
  0.32631113E-08 -0.26986073E-06 -0.15747187E-05  0.91401189E-06 -0.57187762E-06
  0.22493677E-06 -0.20265134E-06 -0.12433916E-05  0.38516402E-07 -0.28771478E-06
 -0.78887533E-06  0.45388138E-06  0.94698014E-06 -0.39341113E-06 -0.37950542E-06
 -0.50135632E-07 -0.33145024E-06  0.17433537E-06 -0.97575005E-06 -0.27996258E-05
  0.76632360E-07  0.15335762E-05  0.18219005E-05  0.20322448E-05  0.28833405E-06
 -0.21471008E-05  0.14157811E-05 -0.18109596E-05  0.11666852E-05 -0.17069897E-05
 -0.86247709E-05  0.12010154E-04  0.32456896E-05 -0.35291556E-05  0.17917631E-04
 -0.70390347E-05 -0.52618808E-05  0.57643798E-05 -0.49468132E-05 -0.95507104E-06
  0.11110868E-05 -0.94475663E-06 -0.14852659E-06 -0.91391037E-06 -0.11572482E-05
  0.14423274E-05 -0.19892471E-05  0.66116820E-06  0.45957543E-05 -0.36906037E-05
  0.16505403E-05  0.57730173E-05 -0.17152949E-04  0.18834991E-04 -0.59376891E-05
  0.25298625E-04 -0.97467685E-05 -0.18689980E-05 -0.11414549E-05 -0.35777796E-06
 -0.32806030E-06  0.62422756E-06  0.80334580E-06  0.38566243E-06 -0.87907519E-06
 -0.20874716E-05 -0.10041578E-04 -0.11726221E-04  0.14488319E-04  0.14710482E-04
 -0.20480403E-04 -0.59554502E-05  0.14995268E-04 -0.26707214E-04 -0.99653402E-05
 -0.22956564E-05  0.44732027E-06 -0.10356519E-05 -0.27875176E-07  0.10092956E-05
 -0.41155199E-06 -0.66236677E-06 -0.22749266E-05  0.89926758E-06 -0.30138617E-05
 -0.98554659E-05 -0.16574064E-04 -0.57626186E-05  0.20242276E-05  0.12429004E-05
  0.88146117E-06  0.83626751E-06  0.20221058E-04  0.92669994E-06  0.34465689E-06
  0.14358824E-05  0.13254183E-05 -0.27078947E-06 -0.98693358E-06  0.32233123E-06
  0.12218669E-05 -0.28526172E-07 -0.47934734E-06  0.35649976E-06 -0.20669380E-05
  0.50784551E-06  0.46419582E-06 -0.86307398E-06  0.21555072E-06 -0.81684788E-06
  0.38665070E-06  0.40399866E-06 -0.99587525E-06  0.67587519E-06  0.49890739E-06
 -0.10244230E-05 -0.47443199E-07 -0.98181234E-06 -0.51749790E-06 -0.21458349E-05
  0.18022986E-05  0.58524448E-06  0.69671073E-06 -0.93488100E-08 -0.20849209E-05
 -0.16784632E-05  0.14902365E-06 -0.13381624E-05  0.13506726E-05  0.19089348E-05
 -0.16453610E-06 -0.12837237E-05  0.10288660E-05 -0.20592289E-05  0.39971359E-06
 -0.13095977E-05  0.28228702E-08 -0.12797369E-05 -0.24665932E-04  0.67099947E-05
 -0.36141684E-04  0.20885675E-04 -0.15720343E-04  0.88442198E-04 -0.76186944E-05
 -0.42653585E-04  0.14538668E-04 -0.24359842E-06  0.63979035E-06  0.59190217E-06
 -0.50922159E-06  0.15161705E-06 -0.24461856E-05 -0.10939394E-05 -0.49218301E-07
 -0.95609217E-07 -0.24802173E-05 -0.52344206E-05 -0.11623727E-04 -0.49521737E-04
  0.21732980E-05  0.14685269E-04  0.46060278E-07 -0.40772508E-05  0.21325362E-04

  0.12732805E-05  0.29144044E-05  0.21208823E-05 -0.11867813E-05  0.16976852E-05
 -0.96404293E-06  0.97142889E-06  0.96116549E-06 -0.16060451E-05  0.12167453E-05
  0.19747641E-05  0.25416809E-05  0.19298161E-05  0.40618816E-05 -0.84944344E-05
 -0.58704359E-06  0.37894900E-05  0.33698788E-07  0.10633505E-04  0.34824755E-04
  0.15020414E-04  0.14055651E-04  0.13903547E-04  0.24690781E-06  0.51852918E-05
 -0.19298930E-04 -0.19722867E-04 -0.26239334E-05 -0.60914239E-05  0.60107429E-05
  0.21112946E-05 -0.12275680E-05 -0.33392609E-05  0.19159400E-05  0.38074569E-05
  0.41257966E-04 -0.62234106E-04 -0.42623749E-04  0.48777301E-04 -0.18862784E-04
 -0.61985223E-04  0.10453069E-04 -0.69642914E-05 -0.78574826E-04 -0.41863661E-04
  0.17684989E-05 -0.53072728E-06  0.23134942E-05  0.15062454E-05 -0.73617487E-06
  0.56090198E-06 -0.14105125E-05  0.37150625E-05  0.32193994E-05 -0.48775262E-06
  0.16667204E-05  0.89915837E-06 -0.17792410E-05  0.47869078E-07  0.11868366E-05
 -0.10569807E-05  0.88650753E-06  0.10014066E-05  0.10049482E-05  0.84234786E-06
  0.79427995E-06  0.11931796E-06 -0.25081175E-05  0.12874736E-05 -0.59423352E-06
 -0.59994988E-06 -0.23785377E-05  0.11639457E-05  0.61132465E-06  0.34548794E-05
 -0.10113112E-05  0.21736012E-05  0.31995400E-06  0.22458931E-06  0.12196997E-06
 -0.47981924E-07  0.20816272E-05  0.82808606E-06 -0.14756983E-05 -0.17752631E-05
 -0.10968018E-05 -0.25814587E-06 -0.43492049E-05 -0.22436052E-05  0.18220658E-05
  0.80520032E-05  0.36842991E-04 -0.87159057E-05  0.13313669E-04 -0.18618410E-04
 -0.94369244E-05  0.81825823E-05  0.19501401E-05 -0.17540989E-05 -0.17479988E-05
 -0.24056262E-05 -0.81231984E-06 -0.17972462E-06 -0.24567847E-05 -0.21840085E-05
  0.25572956E-05  0.11335984E-05 -0.63546911E-06 -0.21025684E-05  0.98518456E-05
 -0.14753625E-04  0.20018936E-04 -0.23779623E-04 -0.50577580E-04  0.12578577E-04
  0.34728654E-04 -0.31985537E-04  0.65918027E-06 -0.43365103E-06  0.23936736E-05
 -0.11004974E-05  0.12432695E-05  0.17014919E-05  0.17401745E-05 -0.12527120E-05
 -0.68049579E-06 -0.63028463E-05  0.57138776E-05  0.45281209E-05  0.45330895E-04
 -0.16737283E-04 -0.19775424E-05 -0.10224689E-04 -0.12300008E-04 -0.90043128E-05
  0.65796541E-07 -0.39473657E-05 -0.30298154E-06  0.41291971E-06  0.17245049E-05
 -0.26313615E-05  0.72933198E-07  0.36783856E-06 -0.38632857E-05 -0.80546479E-05
 -0.10707431E-04 -0.15686317E-04 -0.10710579E-04  0.21744028E-04 -0.41847584E-05
  0.14772308E-04  0.11109540E-04  0.75514283E-05 -0.22253358E-06  0.11956178E-05
  0.12744964E-05  0.13382880E-06 -0.10407675E-05  0.63836403E-06 -0.28705584E-06
 -0.12848545E-06  0.62482977E-06  0.84158002E-06  0.31155386E-05 -0.87915112E-06
  0.59586452E-06 -0.35202355E-05  0.22422724E-05  0.10283916E-05 -0.19519271E-05
 -0.71214232E-06 -0.77529050E-09  0.73522887E-06  0.39869692E-06 -0.43742053E-06
  0.92600707E-06 -0.46084037E-06 -0.27522596E-06  0.77075510E-06 -0.14564800E-05
  0.31001128E-06  0.22065219E-05  0.16362094E-05 -0.38994827E-06 -0.20119656E-05
  0.11952407E-05 -0.88604662E-06 -0.14807168E-05 -0.18434580E-05 -0.14860111E-05
 -0.11138529E-05 -0.22012049E-05 -0.75477000E-07 -0.19738792E-05  0.25613257E-05
 -0.19714202E-05  0.26101290E-07 -0.16374171E-05  0.11740636E-05 -0.51025926E-05
 -0.26788762E-04  0.18278679E-04 -0.46517869E-05 -0.57420858E-04 -0.25040715E-04
 -0.29193935E-04  0.34962604E-05 -0.49185805E-07 -0.14860497E-06  0.14662498E-05
 -0.27360301E-06  0.44080418E-06 -0.22117512E-05 -0.15346929E-05 -0.46317942E-06
 -0.17156669E-05 -0.22556097E-04 -0.58407845E-05  0.25430233E-04  0.95400294E-05
 -0.98569880E-06 -0.36917526E-04  0.71726526E-05 -0.55378740E-05  0.13272285E-04

 -0.25929286E-04 -0.12234995E-04  0.16063970E-05 -0.93005050E-06 -0.46465603E-05
  0.68408185E-05 -0.35601627E-05 -0.59047276E-06  0.43453835E-05 -0.27976149E-05
  0.10841679E-04 -0.20619573E-04  0.23543183E-04 -0.33675698E-05 -0.13750337E-04
  0.51728424E-05 -0.74075121E-05 -0.21242132E-05  0.52866327E-04 -0.19177311E-04
 -0.15559346E-03  0.16447809E-03  0.20441944E-03 -0.25443156E-03 -0.12286199E-03
 -0.84740987E-04  0.20810643E-04 -0.13158324E-04  0.44000094E-04 -0.44088577E-04
 -0.20224282E-04 -0.36041790E-05  0.51893027E-04 -0.74307476E-05  0.24229700E-05
 -0.62234106E-04  0.21709961E-02  0.65996950E-03  0.85302623E-03  0.21843892E-03
 -0.15246198E-03  0.11671612E-03 -0.12651451E-04  0.32999926E-03  0.40201848E-04
 -0.84669714E-05  0.19919167E-04  0.15266817E-04 -0.16556194E-04  0.23676333E-04
  0.18755549E-05 -0.42969204E-05 -0.77063770E-06 -0.50776882E-05  0.19595460E-06
 -0.51503533E-05 -0.18728500E-05  0.85188671E-05  0.14769725E-05  0.62509678E-05
 -0.68820810E-05 -0.43711147E-05 -0.33577987E-05  0.47866507E-05  0.54527963E-05
 -0.57505139E-05 -0.38890251E-05  0.20391218E-04 -0.12613363E-04 -0.13199786E-04
 -0.36606535E-05  0.43060222E-05 -0.42302357E-05 -0.53633647E-05  0.31042992E-05
  0.41382941E-05  0.13465161E-04 -0.17211734E-04 -0.12918127E-06 -0.99524128E-06
 -0.30748920E-06  0.33891685E-05 -0.86519145E-05  0.32919655E-04  0.14985407E-05
 -0.90584342E-05  0.50738125E-06 -0.65900013E-05  0.39274383E-05 -0.24451678E-04
 -0.15637003E-03  0.15836549E-03  0.23836203E-04 -0.15967597E-04  0.11509776E-04
  0.14746800E-04  0.56230134E-04 -0.16634890E-04  0.31510402E-04  0.47748192E-05
  0.68253755E-05 -0.78622959E-06  0.25735759E-04 -0.18779623E-05  0.38271582E-05
 -0.72672067E-05 -0.65544505E-05  0.15353038E-05 -0.94776061E-04  0.12989986E-03
  0.14456491E-03 -0.23109935E-03  0.15299027E-03 -0.32905022E-04  0.11495018E-03
 -0.50350570E-04  0.48246263E-04 -0.19082089E-04  0.65731661E-05 -0.17982617E-04
 -0.25206325E-05  0.17198528E-04 -0.78916404E-05 -0.24884551E-05 -0.20196927E-05
  0.69755377E-05 -0.90821761E-04  0.84398647E-05  0.10168687E-03 -0.33010296E-03
  0.19008915E-03 -0.40995846E-04  0.12260717E-03  0.23062215E-03  0.19766193E-03
 -0.51661699E-05  0.85021545E-06 -0.18248474E-04  0.82123511E-05  0.10758202E-04
  0.19715007E-05 -0.48450718E-05  0.62528829E-05 -0.74777527E-05  0.11117813E-03
  0.72058845E-04 -0.10128887E-03 -0.15880263E-03  0.14716087E-04  0.10233173E-03
 -0.28276253E-04  0.41574480E-04  0.15337882E-03 -0.33251578E-06  0.15705190E-04
 -0.98518900E-08  0.15117446E-04 -0.11562668E-04 -0.12631081E-04  0.69141234E-05
 -0.15125650E-04  0.68488080E-05 -0.17154262E-05  0.33959268E-05 -0.48033590E-05
 -0.66739415E-05 -0.15759942E-04  0.16299729E-04 -0.48948902E-06  0.11651668E-04
  0.82093682E-05  0.95586570E-05  0.11610774E-05  0.11224446E-04  0.13028691E-05
  0.55360599E-05 -0.58377959E-05 -0.32454119E-05 -0.53655785E-05  0.12749370E-05
 -0.61924755E-05  0.23576665E-05 -0.90238101E-05  0.79866856E-05  0.90671734E-05
  0.10818062E-05  0.75930556E-05  0.18181120E-05  0.35748833E-05 -0.35441833E-04
 -0.27589653E-05 -0.40702535E-04  0.13981995E-04 -0.31151832E-05  0.27183367E-04
 -0.17346815E-04  0.18459221E-04 -0.24009631E-04  0.88186055E-04 -0.34797407E-03
 -0.28651025E-03  0.23160606E-03  0.16687231E-03 -0.64411158E-03 -0.26675498E-03
  0.72116360E-04  0.11521458E-03 -0.28313273E-05 -0.79810485E-05 -0.26851649E-05
 -0.17526068E-04  0.68185580E-05  0.16599480E-04 -0.14224708E-05  0.13038908E-05
  0.59523699E-05 -0.13114154E-04 -0.14473130E-04 -0.14585136E-03  0.25787261E-03
 -0.78383342E-04  0.12332339E-03 -0.12137075E-03  0.84601417E-04 -0.22738572E-03

 -0.71151446E-05  0.18478325E-04 -0.27853887E-04  0.19155436E-05  0.22626749E-04
 -0.36227093E-05 -0.86451605E-05  0.17222371E-05  0.22111391E-04  0.94087031E-05
  0.21207803E-04  0.14334787E-04  0.22612198E-04  0.70480270E-05 -0.16952247E-04
  0.13560921E-05  0.43113737E-05 -0.28561000E-04 -0.36357906E-03 -0.17558464E-03
  0.99398379E-04 -0.21697398E-03 -0.36213496E-03  0.13789765E-03 -0.50043977E-03
 -0.29899766E-03 -0.20085417E-03  0.57562590E-04  0.34145873E-04 -0.68850366E-04
  0.19134113E-05 -0.48498123E-04  0.50970120E-04  0.17237611E-04 -0.61547211E-04
 -0.42623749E-04  0.65996950E-03  0.35896629E-02  0.12140501E-02  0.37807229E-03
 -0.82483328E-04  0.10401417E-03 -0.14605623E-03  0.32162496E-03  0.36693179E-03
 -0.19239321E-04  0.14877870E-04  0.88594377E-05  0.23420545E-04 -0.14209034E-05
  0.21839806E-04  0.69740157E-06 -0.18886506E-04 -0.17239293E-04  0.15312091E-04
  0.13919579E-04  0.19979596E-05 -0.26832132E-06  0.87967358E-05  0.66279622E-05
 -0.74998369E-06  0.34941544E-05  0.19255775E-06 -0.46774478E-05  0.63010680E-05
  0.63008367E-05 -0.32359774E-05  0.15513744E-04  0.29281095E-05 -0.10874283E-04
 -0.28563508E-05 -0.75927199E-06 -0.33178783E-05 -0.11704354E-04 -0.49602820E-05
  0.95004488E-06  0.89617690E-05 -0.11460911E-04  0.90132980E-05  0.27589199E-05
 -0.21035617E-05 -0.47691790E-05 -0.22428151E-05  0.22832742E-04  0.30229265E-04
  0.46963717E-05 -0.25514064E-04  0.30062269E-04  0.14234226E-04 -0.26370995E-05
 -0.14427244E-03 -0.21005646E-03  0.16618808E-03 -0.62555208E-04  0.19707837E-03
  0.17301382E-04  0.13471593E-04  0.11434274E-04  0.91639020E-04  0.30162297E-05
 -0.19537735E-04  0.58083036E-05 -0.12008369E-04  0.63129156E-06  0.26647773E-04
 -0.77759161E-05  0.91054444E-05  0.32079906E-04 -0.91719374E-05 -0.14137265E-03
 -0.26729872E-03  0.55831015E-04  0.14472552E-03  0.37027533E-04  0.18558423E-03
 -0.19983866E-03 -0.92811144E-04  0.60441243E-05  0.16554229E-04 -0.35105911E-04
 -0.14737092E-04  0.28509638E-04  0.36524385E-06  0.30984550E-05 -0.10036313E-05
  0.69433618E-06 -0.21556093E-03 -0.64499606E-05 -0.16533534E-03 -0.17009444E-03
  0.12992009E-04 -0.13785472E-03  0.22633973E-03  0.22296542E-03 -0.17912106E-03
  0.63186529E-05  0.23168734E-05  0.59062041E-05 -0.65172570E-05  0.12914874E-04
  0.16535235E-04 -0.41015397E-05  0.51747775E-05 -0.87641126E-05 -0.95482155E-04
  0.74473044E-04 -0.11625362E-04  0.12373979E-03 -0.31156772E-03 -0.10059298E-03
 -0.66233801E-04  0.28328526E-04 -0.95501620E-04 -0.17249495E-04 -0.27919169E-05
 -0.79591974E-05  0.11053465E-04 -0.15741774E-04 -0.24004987E-04 -0.31420204E-05
 -0.96306505E-05  0.79695934E-05  0.85764741E-05 -0.80360142E-05  0.22112609E-04
  0.12768347E-04 -0.32912135E-04 -0.20399524E-05 -0.50196422E-05  0.83113028E-05
  0.75089660E-05  0.42123227E-05 -0.10081158E-04 -0.38878623E-05 -0.81035781E-05
  0.24479560E-04 -0.22319885E-06  0.15329575E-05  0.34666465E-05  0.13104435E-04
 -0.12757739E-06  0.11385232E-04 -0.94135283E-05 -0.98370213E-05  0.15315545E-04
  0.57134202E-05  0.84063183E-05 -0.84260250E-06 -0.23427922E-05 -0.46060612E-04
 -0.38186749E-04 -0.31569046E-04  0.89005884E-05  0.42246192E-04  0.11878280E-05
  0.12541352E-04  0.16784368E-07 -0.24629599E-04  0.94162402E-04 -0.44996348E-03
 -0.83641129E-04 -0.54856362E-04  0.65991395E-03 -0.19312091E-02  0.22449313E-03
  0.55602127E-03 -0.34157541E-03  0.82264358E-05 -0.32509769E-05  0.42816538E-06
  0.47671215E-05 -0.21386175E-05  0.88106283E-05 -0.30010008E-06 -0.27140685E-06
  0.62927568E-05  0.20725000E-03  0.32914264E-03  0.19811707E-03  0.20215649E-03
  0.20608050E-04  0.52460242E-04 -0.39202493E-04  0.14145697E-03 -0.14083825E-03

  0.36679707E-05  0.77183359E-06 -0.16717090E-04 -0.62071919E-05  0.23479404E-04
 -0.18936830E-04 -0.23712762E-05  0.84150857E-05  0.26570797E-05 -0.13322279E-04
 -0.19480516E-06  0.72782642E-06  0.27940146E-04  0.29639042E-04 -0.54256714E-04
  0.86452055E-05  0.11691674E-05  0.72033069E-05 -0.42512011E-03  0.90269635E-04
 -0.88539389E-04  0.47265760E-03  0.29259383E-03 -0.40772115E-03  0.16317092E-03
 -0.39155254E-03 -0.30980262E-03 -0.27706722E-04 -0.19277104E-04 -0.21531915E-04
  0.30344536E-04 -0.17341269E-04 -0.31533805E-04 -0.59267016E-04  0.43633197E-04
  0.48777301E-04  0.85302623E-03  0.12140501E-02  0.35048077E-02 -0.93545680E-04
 -0.51057392E-03  0.16508025E-05 -0.20836477E-03 -0.14063254E-03 -0.52793845E-03
  0.17888281E-04  0.51934562E-05  0.17784078E-04 -0.69253011E-05 -0.72230846E-05
  0.28820588E-04 -0.21095838E-05 -0.14268274E-04 -0.52508471E-05  0.33026288E-05
 -0.82156685E-05  0.15395479E-04  0.24297797E-05 -0.41180852E-05 -0.49182270E-05
 -0.51583717E-05  0.13791222E-05  0.21787713E-05 -0.72134363E-05  0.10552466E-04
  0.21366861E-05 -0.63208946E-05 -0.13814005E-05 -0.72578335E-05 -0.66141343E-05
 -0.20086169E-04 -0.14210754E-04 -0.57605246E-05 -0.79167013E-05 -0.32024880E-05
  0.74582310E-05  0.19241264E-04 -0.15873630E-04  0.47881630E-06 -0.33596696E-05
 -0.41550536E-05  0.25326434E-04  0.30460306E-05  0.44210222E-05 -0.27366824E-05
 -0.21379699E-04  0.76108683E-05 -0.18371765E-04 -0.11865008E-04 -0.18827676E-04
 -0.11398320E-03  0.20596758E-03 -0.88094942E-04  0.48541197E-04  0.22137321E-03
 -0.35759120E-03 -0.90907643E-05  0.13217749E-03  0.15994253E-03 -0.12389348E-05
  0.13103494E-04 -0.15090950E-04  0.56878594E-05  0.79567739E-05 -0.18357610E-04
  0.61958633E-05  0.15038936E-04  0.16703850E-04  0.15508081E-03  0.16283449E-03
 -0.35817412E-03  0.32014226E-03 -0.15994086E-04 -0.36421018E-03  0.11070280E-03
 -0.10320296E-03  0.82792545E-04 -0.10678978E-05  0.14732326E-07 -0.41828958E-04
 -0.11388055E-04  0.33699211E-05  0.16720521E-04 -0.47969952E-05 -0.26956816E-04
 -0.25514277E-04 -0.11323639E-03  0.15769306E-03 -0.32115778E-03 -0.14659881E-03
 -0.16820036E-03  0.24693134E-03  0.42067381E-03  0.17967018E-04 -0.26665042E-03
 -0.70588682E-05 -0.23251513E-04 -0.14086822E-04  0.20840599E-05  0.74145638E-05
 -0.60320750E-05 -0.17276702E-04  0.17794092E-04 -0.86852268E-05 -0.31178857E-04
 -0.73245415E-04 -0.84672368E-04 -0.76437713E-04  0.15035399E-05  0.83531452E-04
  0.11680738E-03  0.82035420E-04  0.14601330E-03 -0.28854950E-06  0.13619337E-04
  0.10794222E-04  0.73173896E-05 -0.65873660E-05 -0.45250225E-04  0.47641531E-05
 -0.97880802E-05  0.14570066E-04  0.21701358E-05  0.16335073E-04  0.82887255E-06
 -0.39074760E-05 -0.98847527E-05  0.24794394E-04  0.47459419E-05  0.43319251E-05
  0.30261556E-05  0.39943900E-05 -0.87934564E-05 -0.15550861E-05 -0.64469524E-05
  0.64598755E-05 -0.17118809E-04 -0.26787048E-05  0.38254794E-06 -0.13925317E-04
 -0.64750496E-05  0.21720951E-04 -0.45144361E-06 -0.66826255E-05 -0.16227823E-05
  0.21400831E-05  0.97522655E-05  0.16791158E-05  0.12031308E-04 -0.55850459E-04
 -0.26969583E-04 -0.35697293E-04  0.12486578E-04  0.13447109E-04  0.47771737E-04
 -0.91307216E-05  0.18133851E-04 -0.47517962E-04 -0.93661595E-04 -0.33488567E-03
  0.17998603E-03  0.16287969E-03  0.53129069E-03 -0.13852078E-02 -0.22890605E-03
  0.92317031E-04  0.23236355E-03  0.33112902E-06 -0.68969309E-05 -0.45443198E-05
 -0.78914516E-05 -0.11581963E-04  0.20848286E-04 -0.12519640E-04  0.41626150E-05
  0.13663537E-04 -0.56284741E-04  0.16611080E-03 -0.27201644E-03 -0.18641824E-03
 -0.80841235E-04  0.42028850E-03 -0.21559882E-03  0.11006520E-03  0.64320041E-05

 -0.27677176E-04 -0.18737511E-04 -0.15024596E-04 -0.34501646E-04  0.22678253E-04
  0.49555084E-05 -0.10037134E-04 -0.26853074E-04 -0.49388556E-05 -0.18173507E-04
  0.41531405E-04 -0.40407380E-05  0.27238645E-04 -0.20608485E-04  0.72697276E-05
  0.14360344E-04 -0.77852965E-05 -0.28968983E-05  0.19615262E-03 -0.75573168E-04
 -0.95845524E-05  0.11731699E-02 -0.39926406E-04 -0.16743627E-03 -0.33567817E-04
  0.13233866E-03  0.20171721E-03  0.63206678E-04  0.27621284E-04 -0.27109284E-04
  0.54772382E-04 -0.48653506E-05 -0.74595705E-05  0.49192172E-04 -0.60119749E-04
 -0.18862784E-04  0.21843892E-03  0.37807229E-03 -0.93545680E-04  0.43748172E-02
 -0.19686226E-02 -0.83460856E-03  0.68775547E-03  0.12452368E-02  0.34992561E-03
 -0.34581140E-05  0.21917551E-04  0.37837183E-05 -0.33156966E-04  0.91551813E-05
  0.13548663E-04 -0.12297953E-05 -0.19479608E-04 -0.70105504E-05  0.42117796E-05
  0.14612109E-04  0.90025434E-05  0.75360887E-05  0.72833226E-05 -0.43498000E-06
  0.12175697E-04 -0.10212839E-05  0.39493133E-05  0.15403412E-04  0.95345333E-05
  0.10612851E-04  0.65805093E-05  0.41275626E-04 -0.71001998E-05  0.60637169E-05
 -0.84073697E-05  0.43450975E-05 -0.69681549E-05 -0.16783730E-04  0.21525391E-04
 -0.22421642E-05  0.80950780E-05  0.36873595E-05  0.30390651E-05  0.94306045E-05
 -0.45912567E-06 -0.31325129E-05 -0.72976440E-05  0.86636450E-05  0.27530533E-04
 -0.32265622E-05  0.10164835E-04  0.62023892E-05 -0.10438404E-04  0.66249123E-05
 -0.15624647E-03  0.18723386E-03  0.95244431E-04  0.28629205E-03 -0.14729166E-03
 -0.11408477E-04 -0.17192052E-03  0.51891885E-04  0.42854547E-04 -0.57432076E-07
 -0.28675002E-04 -0.90012614E-06 -0.14696508E-04  0.74069749E-05  0.13683670E-05
 -0.30205418E-05  0.95374151E-05  0.88183477E-05  0.78360125E-04 -0.12521576E-03
 -0.23097430E-04  0.26944926E-03  0.12993923E-03 -0.18090408E-03  0.64725380E-04
 -0.18647426E-03 -0.17138409E-03  0.21211535E-04  0.80791286E-05  0.11210539E-04
  0.44533555E-05  0.11814440E-06  0.30256568E-05 -0.12585114E-04  0.87367553E-05
  0.17178830E-04  0.10371887E-03  0.52342255E-04  0.11015573E-03 -0.42601490E-03
  0.18098731E-03  0.86107249E-04 -0.11839952E-03  0.28869623E-04  0.11777468E-03
  0.22706061E-04  0.98922416E-05 -0.16805153E-04 -0.15837514E-04  0.14860094E-05
  0.77956313E-05  0.16749290E-04  0.16386627E-04 -0.16220339E-04 -0.10775531E-03
  0.11145989E-03  0.12853091E-04 -0.91664976E-04  0.21801473E-03  0.56880882E-05
 -0.10370819E-03  0.13575551E-03 -0.14843425E-03  0.20100104E-07  0.28025863E-05
  0.39978161E-05  0.14269684E-04 -0.26166341E-04  0.13352362E-04  0.12588658E-04
 -0.14550539E-05  0.54689388E-05  0.10454605E-05  0.88204176E-05 -0.49224859E-05
 -0.14563126E-04  0.41749010E-05  0.95262151E-05 -0.78592210E-05  0.14634655E-04
  0.77507979E-05  0.35219133E-05 -0.79883141E-05  0.86095562E-05 -0.24522186E-05
  0.12677089E-04  0.62352600E-05 -0.27713874E-05 -0.71815638E-05  0.55775281E-08
 -0.62922386E-05  0.74105920E-05 -0.24145560E-05  0.19395209E-04  0.16859509E-04
  0.88388860E-05  0.13039990E-04  0.21046644E-04 -0.20061048E-05  0.10993568E-04
  0.10451621E-05 -0.15598067E-04 -0.92885265E-05  0.11310420E-05  0.21678583E-04
  0.23978227E-05  0.38587606E-05  0.52854845E-05 -0.14802742E-03  0.13206818E-03
 -0.26481894E-03 -0.77303350E-03  0.17144845E-03  0.77876675E-03  0.19373750E-03
  0.10975497E-03  0.75567401E-04  0.20649292E-04  0.37885816E-05  0.22090593E-04
  0.17908324E-04  0.85163840E-05  0.16011342E-04  0.47917939E-05  0.87591418E-05
  0.11639621E-04 -0.88401587E-04  0.27340653E-04 -0.16560552E-03  0.16869894E-03
 -0.23504180E-04 -0.38969804E-04 -0.84217164E-04  0.17037812E-04 -0.17382947E-03

  0.71071044E-04  0.77697670E-04  0.66717406E-05  0.34936098E-04 -0.89387497E-05
  0.18173478E-04  0.71802111E-04 -0.37802754E-05 -0.49131273E-05  0.31515563E-04
 -0.95084143E-04  0.41295828E-05 -0.41865041E-04  0.94118196E-04  0.23588195E-04
 -0.38258569E-04 -0.15055826E-04 -0.16985845E-05 -0.70633569E-04  0.17506070E-02
  0.43038488E-04 -0.33323694E-04 -0.19542908E-02 -0.47543050E-04 -0.71561517E-03
 -0.22854079E-03  0.35284961E-03  0.16036380E-04  0.23963578E-04 -0.93975077E-05
 -0.70094221E-05  0.61522214E-04 -0.47053727E-04  0.28331434E-04  0.80724863E-05
 -0.61985223E-04 -0.15246198E-03 -0.82483328E-04 -0.51057392E-03 -0.19686226E-02
  0.11778477E-01 -0.82761285E-03  0.19546485E-02  0.33154870E-03  0.36843931E-02
 -0.16508364E-04 -0.21999415E-04 -0.19525051E-04  0.37589990E-04 -0.95833958E-04
  0.38787159E-04 -0.26173479E-04  0.22693816E-04  0.15148798E-04  0.42452384E-06
 -0.16030835E-04 -0.35636563E-04  0.98441735E-05  0.34022798E-04 -0.38419919E-04
 -0.27951961E-04 -0.11643514E-04 -0.23891272E-04 -0.20777907E-04  0.10073047E-04
 -0.71470203E-05  0.42106068E-04 -0.47168625E-04 -0.12466191E-04  0.23190746E-04
  0.25593975E-05 -0.49417253E-06  0.21286973E-05  0.49439883E-04 -0.63745165E-05
  0.83958494E-05  0.14356708E-05  0.22120526E-04  0.79372200E-05 -0.33837042E-05
 -0.15879097E-04  0.35103893E-04 -0.36276328E-04  0.76724403E-05  0.28190119E-05
 -0.43875145E-04  0.24776480E-04 -0.32373720E-04  0.25164823E-04 -0.83677292E-05
  0.16317078E-03 -0.13768742E-03  0.18755455E-03 -0.26015870E-03  0.33288244E-03
  0.28838826E-03  0.52114938E-04  0.14451998E-03  0.60095119E-04 -0.20276301E-04
 -0.25315050E-05  0.24631224E-04 -0.63467939E-05  0.58944646E-05  0.63167023E-05
 -0.10402654E-04 -0.47632607E-06  0.12626901E-05 -0.61303909E-04  0.17898596E-03
  0.33492620E-03  0.48065378E-03 -0.36498145E-03  0.57328518E-03  0.12700053E-03
 -0.11636986E-03  0.24262528E-04 -0.23364178E-04 -0.54118666E-04 -0.12333546E-04
  0.60084497E-05  0.16523658E-04 -0.12353062E-04  0.20866785E-04  0.33383515E-04
  0.12827107E-04 -0.30694093E-03 -0.10761845E-02  0.15572438E-03  0.12602020E-03
  0.68572851E-03 -0.72771989E-03 -0.18859924E-03  0.24518397E-03  0.42854885E-03
 -0.40950836E-04 -0.66900979E-05  0.31747428E-04 -0.26115406E-04  0.13721727E-05
  0.53452492E-04  0.20047604E-04 -0.24045606E-04 -0.50120897E-05 -0.14896482E-03
 -0.67439478E-03 -0.18723468E-04  0.25755706E-03 -0.53574309E-03 -0.28483370E-03
 -0.12948687E-04  0.65399652E-04  0.17559739E-03 -0.82605489E-05 -0.14830731E-04
 -0.15373261E-04 -0.13676676E-04  0.54521085E-04  0.12453944E-05  0.11110304E-04
  0.86401831E-06 -0.13207158E-05  0.42649426E-05  0.79854208E-05 -0.11902524E-04
  0.15258704E-04  0.98477193E-05 -0.37118151E-05  0.86374359E-05  0.24770392E-05
  0.11878324E-04  0.34617436E-06 -0.10794036E-04  0.49692305E-05  0.12926974E-04
  0.41139264E-04  0.52324896E-05  0.49046383E-05  0.93137315E-05 -0.47479337E-06
 -0.28536566E-04  0.13092895E-04  0.57739338E-04 -0.27850462E-04 -0.71894083E-05
 -0.89529148E-05 -0.31845334E-04 -0.40799288E-05  0.34009636E-04  0.35688441E-04
 -0.81211041E-04 -0.24388007E-04 -0.15327101E-05  0.48628443E-04 -0.25169201E-04
  0.66086934E-04  0.93860367E-05  0.32923483E-04 -0.26960459E-03 -0.74118684E-04
  0.27403947E-04  0.33144511E-03 -0.34958277E-04  0.67776735E-03 -0.77858573E-03
  0.23363405E-03  0.92801612E-04 -0.75654356E-05 -0.15174218E-05 -0.22588247E-04
 -0.28516990E-04 -0.21154921E-04  0.11877550E-04 -0.44870390E-05  0.47101490E-05
 -0.30853537E-04 -0.82609044E-04 -0.29212512E-03  0.19444930E-03 -0.40936582E-03
  0.30604781E-03 -0.66855595E-04 -0.76745976E-05 -0.33587555E-04  0.21429845E-03

 -0.25180490E-04 -0.38040187E-05  0.40635118E-04 -0.24350732E-05  0.13245042E-04
 -0.34684148E-04  0.59661351E-05 -0.96883940E-05  0.46835022E-04  0.24534327E-04
  0.15367167E-04  0.54079464E-04 -0.28982108E-04  0.12127483E-04 -0.18851974E-04
  0.97310731E-05  0.11210236E-04 -0.97275894E-05 -0.14341013E-03 -0.20434301E-04
 -0.39918822E-03  0.38705603E-03 -0.25562395E-03 -0.90463117E-04  0.34122535E-03
 -0.71622619E-04 -0.15594373E-03 -0.72393368E-05  0.69639791E-05 -0.18686899E-04
 -0.53511707E-04 -0.31742881E-04  0.10966326E-03 -0.40051193E-04 -0.33829617E-04
  0.10453069E-04  0.11671612E-03  0.10401417E-03  0.16508025E-05 -0.83460856E-03
 -0.82761285E-03  0.74717946E-02  0.63805738E-03  0.22182465E-02  0.25698041E-02
 -0.52608862E-05 -0.94806876E-05 -0.38566748E-05  0.52383746E-05  0.49216128E-05
  0.34774441E-04  0.41935901E-05  0.20781509E-04  0.67467785E-05 -0.58599255E-05
  0.13118782E-04  0.28995231E-04 -0.17362203E-05  0.13337065E-04 -0.43944460E-05
 -0.30463776E-05 -0.12021156E-04 -0.10427960E-04  0.19332366E-04  0.53157215E-05
  0.18251704E-05 -0.61489799E-05  0.35909206E-05  0.19088388E-04 -0.41873059E-05
  0.18898395E-04 -0.63604888E-05  0.21830215E-04 -0.73366966E-05  0.38677435E-04
  0.15780533E-04  0.28113661E-04 -0.53413084E-04 -0.17147225E-05  0.14851026E-04
  0.81857338E-05  0.12376250E-04  0.42402092E-04  0.29433291E-04  0.14885191E-04
  0.23335623E-04 -0.57719093E-04 -0.16409890E-04  0.16574908E-04 -0.30136736E-04
  0.10363118E-03 -0.73823161E-04  0.58107481E-04  0.21371511E-03 -0.19351587E-03
 -0.91921497E-04  0.29478394E-03  0.11395085E-03 -0.62968181E-04 -0.44205287E-04
 -0.23735048E-04 -0.76000355E-05  0.23720847E-04 -0.28229883E-05 -0.17058518E-05
  0.13362659E-04 -0.14061955E-05  0.16569623E-04  0.26201833E-03 -0.14555280E-03
 -0.24981795E-03  0.37011395E-03  0.28196179E-03 -0.11408286E-02  0.28297551E-03
  0.55870958E-03 -0.18842710E-03  0.17419613E-04  0.41759179E-05  0.40959997E-04
 -0.26151757E-05 -0.28015234E-06  0.60295469E-05  0.22273737E-04 -0.44371149E-04
  0.96848816E-05  0.16855392E-03  0.16536064E-03  0.54061070E-03 -0.33630377E-03
 -0.55910221E-06  0.78478701E-03 -0.25888930E-04 -0.29463795E-03  0.18194393E-03
 -0.13143497E-04  0.18194574E-04 -0.73172605E-04  0.24334317E-04  0.80110708E-05
 -0.12997033E-04 -0.91134324E-05  0.64161401E-06 -0.15833523E-04 -0.49898048E-04
  0.25118974E-03 -0.52318201E-03  0.54139996E-04 -0.11725352E-04 -0.98540593E-04
 -0.13385037E-03 -0.18594510E-03 -0.23936155E-03 -0.16347731E-04  0.60475897E-05
 -0.15702867E-04 -0.50657595E-05 -0.11549877E-05  0.21572711E-04  0.21253484E-05
  0.61492180E-06  0.19609221E-04  0.12251741E-04 -0.29620233E-05  0.31485979E-04
  0.19158668E-05 -0.15606168E-04  0.48452668E-04  0.28820035E-05 -0.25613435E-05
  0.56136676E-05  0.58107520E-05 -0.39262492E-05 -0.15740829E-04  0.12398432E-04
  0.27873373E-05 -0.15847218E-04 -0.10487077E-04  0.18246644E-04  0.54151067E-05
 -0.15276149E-05 -0.16242959E-04 -0.34173750E-04  0.10687354E-04 -0.14178406E-04
  0.37550049E-04  0.14659888E-05  0.31267743E-05 -0.21583310E-04 -0.48434773E-04
  0.26745650E-04  0.28375867E-04 -0.12652140E-04 -0.11915837E-04  0.12723225E-04
 -0.19736856E-04 -0.99654806E-05  0.24412276E-05  0.14766854E-03  0.88195799E-04
  0.51674015E-03  0.15644358E-03 -0.39442602E-03  0.57165934E-03 -0.40261305E-03
 -0.66421897E-04 -0.30750785E-03  0.17849826E-04  0.29035954E-05 -0.53095633E-05
 -0.37779000E-05 -0.59769497E-05  0.12114971E-04  0.94795982E-05 -0.88545376E-05
 -0.19122264E-04 -0.23355830E-03  0.72414209E-04 -0.69959598E-04 -0.34716137E-03
  0.30050119E-04  0.27994056E-03 -0.39664701E-04 -0.43023709E-03 -0.26977908E-03

 -0.42310278E-05 -0.56492283E-05  0.20652056E-04  0.77541976E-05 -0.11215688E-04
 -0.24545375E-04  0.25305408E-04 -0.44754318E-06 -0.10161443E-04 -0.85515573E-05
 -0.34635218E-05  0.29640105E-04 -0.28662858E-04 -0.17884292E-05  0.34410815E-04
  0.14511458E-04 -0.67834723E-05  0.17524854E-04  0.41496995E-03  0.52954623E-03
 -0.45235409E-04  0.33340367E-03 -0.77470338E-03  0.55889839E-04 -0.30853752E-03
  0.23426079E-04  0.33002490E-03  0.13967603E-04 -0.19508080E-04  0.64677690E-04
  0.33061321E-04  0.52879682E-04 -0.83210475E-04  0.17994862E-05 -0.14689147E-04
 -0.69642914E-05 -0.12651451E-04 -0.14605623E-03 -0.20836477E-03  0.68775547E-03
  0.19546485E-02  0.63805738E-03  0.32346608E-02  0.12545073E-02  0.15968047E-02
 -0.20615737E-04  0.68250825E-05 -0.69674224E-05  0.12132790E-04 -0.40563281E-04
  0.19239899E-04 -0.25720812E-04  0.64406250E-05 -0.72686760E-06  0.38630319E-05
  0.44076756E-05 -0.60408104E-05  0.99534016E-05  0.15282366E-04 -0.29612524E-04
 -0.92315299E-05 -0.11712574E-04 -0.13702818E-04 -0.24354043E-05 -0.51628102E-05
 -0.18364183E-05  0.95378553E-05  0.17930240E-04 -0.11774425E-04 -0.73806138E-05
 -0.23849522E-05 -0.39191488E-05 -0.78323368E-05 -0.19867839E-04  0.27140442E-04
  0.77206896E-05  0.10292914E-04  0.71701946E-05 -0.14200129E-04  0.77452640E-06
  0.17894788E-04 -0.50239620E-06 -0.23932856E-04  0.80695872E-05  0.15022442E-04
 -0.22421789E-04  0.14056174E-04 -0.26767999E-05  0.31439726E-05 -0.50780618E-05
  0.73998670E-04 -0.24258710E-04  0.72074424E-04  0.12267587E-03  0.41801603E-04
  0.18653349E-03  0.27243905E-04  0.23160287E-04  0.31894322E-04 -0.20973567E-06
  0.14522427E-04  0.14514337E-04  0.12503920E-04  0.71973824E-05 -0.17044170E-04
 -0.11962722E-04 -0.13604515E-05 -0.89020899E-05  0.72264512E-04  0.18477814E-03
  0.29858252E-03 -0.17879268E-03  0.19726311E-03 -0.77976853E-04  0.11150644E-03
  0.17098385E-05  0.13359911E-03 -0.12883711E-04 -0.28343558E-05  0.17922611E-04
  0.18965719E-04 -0.30579955E-06 -0.83186511E-05  0.20700890E-04  0.50918019E-05
  0.46036391E-05  0.14028775E-03 -0.45763877E-03  0.29812646E-03 -0.56459183E-03
  0.24981823E-03  0.11438188E-03  0.13526717E-03  0.17171790E-03  0.18746678E-03
 -0.33459220E-04  0.15546679E-04 -0.80150206E-05 -0.40934535E-05 -0.24666524E-04
  0.32001183E-05  0.14508948E-04 -0.90536627E-06 -0.17313875E-04  0.68288433E-04
 -0.62619473E-04 -0.11029248E-03  0.14910330E-03 -0.19035220E-03 -0.29062496E-03
 -0.31710800E-03 -0.15842967E-04  0.11274599E-03 -0.44525669E-05 -0.15382010E-04
 -0.25974607E-05 -0.28617542E-04  0.74760834E-05  0.31803262E-04  0.10880786E-04
  0.13660664E-04 -0.67423180E-05  0.13961540E-04 -0.39171705E-05 -0.15042002E-04
  0.36670211E-05  0.23603047E-04  0.57918726E-05  0.10392877E-04  0.30111852E-05
  0.63914879E-06  0.57346329E-06 -0.12947139E-04  0.67242036E-05 -0.28231900E-05
  0.16056588E-04  0.93378121E-05  0.41849896E-05 -0.89823143E-06 -0.81215709E-05
 -0.21158913E-04  0.41142792E-05  0.96315421E-05 -0.17015877E-04  0.11183142E-04
  0.61095734E-05 -0.11493909E-04  0.85967054E-05  0.22052940E-04 -0.22421648E-05
 -0.28791864E-04 -0.50703596E-05 -0.15883901E-04 -0.18216288E-04  0.19417794E-04
  0.11090519E-04  0.23367944E-05  0.18034816E-04 -0.55808264E-04  0.12022522E-03
  0.19010773E-03 -0.21942040E-03 -0.34758327E-03  0.15960789E-02 -0.36138499E-03
 -0.23896753E-03  0.12086645E-03  0.12706810E-05 -0.88482095E-05  0.12361472E-04
 -0.13319423E-04 -0.49516872E-05  0.17484821E-04  0.16367166E-04  0.44424453E-06
  0.56979435E-05  0.62208526E-05  0.25720639E-04 -0.54736086E-03 -0.41197104E-03
  0.99190123E-04 -0.13078063E-04 -0.20172241E-03 -0.46985601E-04 -0.51352903E-04

  0.99884816E-05  0.21315163E-05 -0.18407344E-04 -0.28832598E-04  0.21347423E-04
  0.14293576E-06  0.12244696E-04 -0.17835120E-04  0.24062094E-04 -0.11122285E-04
  0.19027764E-04  0.24937788E-04 -0.15108823E-04 -0.35753351E-04  0.47437863E-04
 -0.15616225E-05 -0.12619459E-04 -0.13686850E-04 -0.13770660E-03 -0.96791129E-04
 -0.16523174E-03  0.67255401E-03 -0.34285829E-03 -0.17753344E-04  0.76599859E-04
  0.34151682E-06  0.22159937E-03  0.22557878E-04  0.78964968E-04 -0.66282301E-04
 -0.32442390E-04  0.54520906E-04  0.26400217E-04  0.22015055E-04 -0.36964192E-04
 -0.78574826E-04  0.32999926E-03  0.32162496E-03 -0.14063254E-03  0.12452368E-02
  0.33154870E-03  0.22182465E-02  0.12545073E-02  0.36081459E-02  0.15070066E-02
 -0.16126167E-04  0.13883731E-04  0.12582563E-04  0.47949677E-06 -0.41908087E-05
  0.30602035E-04  0.55735189E-05  0.51862559E-06 -0.56585148E-05  0.20664422E-04
  0.15750545E-04  0.45671384E-06  0.18139406E-04  0.12115601E-04 -0.14614425E-04
  0.80374858E-05 -0.11721924E-04 -0.12444124E-04  0.96326430E-05  0.59004731E-05
  0.77738586E-05 -0.18813190E-05  0.36215007E-04 -0.76362601E-07 -0.14921855E-05
  0.75017373E-05  0.57580070E-05 -0.15087278E-06 -0.79368900E-05  0.37066389E-04
  0.74710447E-05  0.37472160E-05 -0.40161262E-05 -0.84220438E-05  0.63088979E-05
 -0.53367774E-05 -0.81357230E-05 -0.10056842E-04  0.31269045E-04  0.16406257E-04
 -0.74001226E-05  0.70190040E-05 -0.18249722E-04  0.91956722E-05 -0.19117786E-04
  0.46504536E-04  0.23389370E-03  0.18118147E-03  0.12053172E-03 -0.12565091E-03
  0.23842917E-03  0.75977278E-04  0.18455220E-03  0.13283466E-03 -0.21054995E-05
 -0.22167739E-04 -0.36295279E-04  0.47585449E-05  0.42803220E-05 -0.13702251E-06
 -0.15203451E-04  0.45447924E-05  0.22618039E-04  0.15185988E-03 -0.13481208E-03
 -0.15814599E-03  0.48499272E-03  0.25367118E-03 -0.31310865E-03  0.29697794E-04
 -0.19621248E-03 -0.12604190E-03  0.93967340E-05  0.60327731E-05  0.18432463E-04
  0.97742546E-05  0.28591032E-05 -0.24418137E-04  0.82439024E-05 -0.82896888E-05
  0.27022881E-04  0.21605212E-03 -0.41094798E-04  0.33696011E-03 -0.62546826E-03
  0.21214161E-03  0.20040791E-03  0.14640416E-03  0.14186434E-03  0.13927740E-04
 -0.17380932E-04 -0.78026605E-06 -0.36502856E-04  0.16230243E-05 -0.72260841E-05
  0.13340193E-04  0.31794677E-05 -0.11792614E-04 -0.66083750E-05 -0.14520267E-03
  0.10516133E-03 -0.11062368E-03  0.19635188E-03  0.86830211E-04 -0.12682189E-03
 -0.10890797E-03 -0.14003266E-03 -0.17366926E-03 -0.15398463E-04  0.33992452E-05
 -0.10239156E-04 -0.74921101E-05 -0.24015557E-05  0.20157580E-04  0.16113638E-04
  0.82608304E-07  0.25409406E-04  0.52045964E-05 -0.62134067E-06  0.23619323E-04
  0.12100141E-04 -0.84713028E-05  0.27964092E-05  0.12553280E-05  0.16124281E-04
 -0.22302692E-06  0.66843562E-05 -0.21929374E-05 -0.17125884E-06 -0.13661714E-06
  0.11837442E-04 -0.81746568E-06 -0.76006925E-05  0.16849147E-05 -0.40021602E-05
 -0.79066012E-05  0.51880157E-05 -0.58027840E-05  0.17135082E-04  0.48801133E-05
  0.16100238E-04  0.40045151E-05  0.16882881E-04 -0.76590897E-05 -0.19171539E-04
  0.20183016E-05 -0.21548978E-04 -0.22004810E-04  0.24124480E-04 -0.54517454E-06
  0.22105950E-05  0.14626730E-04  0.17398662E-05 -0.22965590E-03  0.14916965E-03
  0.50233096E-03 -0.43858641E-03  0.72151310E-04 -0.33696392E-03  0.15551856E-03
  0.46034915E-03 -0.61870339E-03  0.19502561E-04  0.17275278E-04  0.18195684E-04
  0.98317378E-05  0.24182067E-05  0.15384784E-04  0.35748703E-05 -0.27972112E-05
 -0.39209078E-05  0.66235134E-04  0.15536918E-03 -0.38338292E-03 -0.53731669E-03
  0.22068358E-03 -0.14341763E-04 -0.19463351E-03  0.31915086E-05 -0.21873370E-03

  0.27796880E-04  0.22936130E-04  0.56772177E-05  0.24331528E-04 -0.10225054E-04
  0.17221181E-04  0.28430439E-04 -0.29255840E-04 -0.58600504E-05  0.19942100E-04
 -0.13212574E-04  0.18453614E-05 -0.25709588E-04  0.35441110E-04  0.36593756E-05
 -0.17972097E-04 -0.84424817E-05  0.29992589E-04  0.35936835E-03  0.71824964E-03
 -0.15365966E-03  0.46451719E-03 -0.83000168E-03  0.85026548E-04 -0.17566736E-03
 -0.21772389E-03  0.36487242E-03  0.92704202E-04  0.27024394E-04 -0.64201453E-04
 -0.15134109E-04 -0.25189044E-04  0.65989740E-04  0.29075853E-04 -0.93847502E-04
 -0.41863661E-04  0.40201848E-04  0.36693179E-03 -0.52793845E-03  0.34992561E-03
  0.36843931E-02  0.25698041E-02  0.15968047E-02  0.15070066E-02  0.57763605E-02
 -0.20399108E-04  0.19242731E-04 -0.11635080E-04  0.24264567E-04 -0.37060118E-04
  0.32939499E-04 -0.12071763E-04  0.11177404E-04 -0.11299051E-04 -0.10042500E-04
 -0.26579806E-05 -0.50810384E-06  0.89307561E-05  0.67578681E-06 -0.46557426E-05
 -0.16828778E-04 -0.15660119E-04 -0.17590556E-04  0.17873122E-05  0.21998767E-04
 -0.84863846E-05  0.23840219E-04  0.19777183E-04 -0.12734203E-04  0.71095609E-05
  0.15479240E-04  0.10199992E-04  0.31053354E-05 -0.29236399E-06  0.22804539E-04
  0.12882605E-04  0.57151067E-05 -0.23146328E-04  0.22525457E-04  0.11258060E-04
 -0.83262994E-05  0.27748121E-04 -0.22383253E-04 -0.43482820E-05  0.10587220E-04
 -0.99647256E-05  0.16956400E-04 -0.19859754E-04  0.15540989E-04  0.42836448E-04
  0.15894838E-03  0.15795069E-03  0.44445338E-04  0.15713767E-03 -0.11588762E-04
  0.70345250E-05 -0.14776201E-04  0.15867481E-03 -0.63342060E-04 -0.29764931E-04
 -0.78021693E-05  0.21609792E-04  0.17242126E-04  0.34576480E-05 -0.25185930E-04
 -0.30949238E-05  0.15963745E-04  0.92360576E-05  0.22061309E-03  0.64676888E-04
  0.18184648E-03  0.50334155E-03 -0.11796948E-03 -0.41717923E-04  0.33595377E-03
 -0.83218300E-04 -0.27968542E-04  0.14604531E-04 -0.37375080E-04  0.38119281E-04
 -0.49310058E-05  0.93667788E-05  0.32982837E-04 -0.49783776E-05  0.16047326E-04
  0.22255099E-04 -0.11531228E-04 -0.47873827E-03  0.27704608E-03 -0.20636810E-03
  0.11110210E-02 -0.24766796E-03 -0.44316023E-03 -0.61540509E-04  0.44508397E-03
 -0.50297231E-05 -0.29036812E-04 -0.36316401E-04 -0.32988872E-05 -0.15404304E-04
  0.25983238E-04  0.52458971E-05 -0.16312862E-04 -0.49002349E-04 -0.23190348E-03
  0.59445654E-05  0.29882657E-04  0.65682298E-04  0.18179971E-03 -0.85232700E-04
 -0.18924287E-04 -0.75459144E-04 -0.31042504E-03 -0.15819299E-04 -0.45774888E-05
  0.18073628E-04  0.69634888E-05  0.12795530E-04  0.23218970E-04 -0.57895338E-06
 -0.66565309E-05  0.99099759E-05 -0.87981920E-05  0.22429035E-04  0.18971684E-06
 -0.20913144E-05  0.25130988E-04  0.25552982E-04 -0.92061453E-06  0.14745998E-04
  0.27988560E-04  0.11224891E-04 -0.11744938E-04  0.25174517E-05  0.15917468E-04
  0.15126069E-04  0.10538039E-05  0.21118546E-05  0.14018317E-04  0.18303432E-04
 -0.12941229E-04  0.80106215E-05  0.14605745E-04 -0.15054876E-04  0.52616765E-04
  0.18190184E-04 -0.11412929E-05 -0.46782318E-05 -0.12679840E-04 -0.16239368E-04
 -0.55545600E-05  0.36543138E-05 -0.58515196E-05  0.30494992E-04 -0.64154842E-05
  0.20120822E-04  0.83079815E-05  0.57209704E-04  0.14437402E-03  0.56954175E-04
  0.35459553E-04 -0.40155762E-04 -0.28783598E-03  0.18849570E-02 -0.55120364E-03
  0.13054179E-03  0.41205832E-03  0.10842416E-04  0.43674006E-05  0.42243537E-05
 -0.21195198E-04  0.15059651E-04  0.37376272E-04  0.25178351E-04 -0.86093421E-05
  0.14205474E-04 -0.39692478E-03 -0.17034740E-03  0.10599958E-03  0.19040359E-03
 -0.11689263E-03 -0.61676594E-04 -0.48471098E-04  0.34306949E-05 -0.22108057E-03

 -0.93162479E-07 -0.24160131E-05  0.35206498E-06 -0.12096511E-05  0.17881566E-05
 -0.11582110E-06 -0.78663059E-06 -0.10116576E-05 -0.50489860E-06 -0.22607489E-05
  0.11346108E-05 -0.24613931E-05  0.59004590E-06  0.96895571E-06 -0.11149742E-05
 -0.89930760E-06 -0.13748771E-05 -0.26454425E-05 -0.11761533E-04 -0.20795145E-04
  0.39268073E-05  0.30885184E-04  0.43778397E-04 -0.43788725E-04  0.63262178E-05
  0.89912823E-05 -0.32298783E-05 -0.39841022E-06  0.32943974E-05 -0.14257515E-05
  0.14944908E-06 -0.24884132E-05 -0.29330283E-06 -0.43333603E-06  0.13426240E-05
  0.17684989E-05 -0.84669714E-05 -0.19239321E-04  0.17888281E-04 -0.34581140E-05
 -0.16508364E-04 -0.52608862E-05 -0.20615737E-04 -0.16126167E-04 -0.20399108E-04
  0.25052943E-04  0.20908830E-05  0.33375145E-05  0.44304707E-06  0.78709736E-06
 -0.19782860E-05  0.10205379E-05 -0.19270525E-06 -0.15253895E-06  0.73651650E-06
  0.15953117E-05  0.11265302E-05 -0.25425750E-06 -0.35263324E-06  0.42062080E-06
 -0.13004007E-05 -0.11754754E-06  0.29026459E-06  0.72079104E-06 -0.87047823E-06
 -0.25074728E-07 -0.32582564E-06 -0.10538468E-05  0.11879106E-05  0.12574911E-05
 -0.80012703E-06 -0.24420764E-07 -0.20406420E-05  0.11185044E-05 -0.17437100E-05
  0.10717419E-05  0.95449260E-07 -0.13462463E-05 -0.35606453E-06 -0.38579039E-06
 -0.62288482E-06  0.21960425E-05 -0.53052750E-06 -0.87746768E-06 -0.11745210E-05
  0.65749502E-06 -0.15487033E-06 -0.62918013E-06 -0.96106555E-06 -0.17073136E-05
  0.18109455E-05  0.16253671E-04 -0.90886980E-05 -0.12232867E-04  0.31557658E-04
 -0.33245098E-04  0.19413697E-05  0.14893545E-04  0.27604148E-05 -0.54967563E-06
 -0.41124474E-06 -0.12702828E-05 -0.40478530E-06 -0.39597239E-06 -0.12004622E-05
  0.14769079E-06 -0.10788270E-05 -0.10365312E-06 -0.55921047E-06  0.10235160E-04
 -0.77891249E-06  0.29244277E-04 -0.42094662E-05 -0.17557701E-04  0.92704062E-05
  0.55377271E-05  0.99115534E-06  0.18611899E-06 -0.26536634E-05  0.33301124E-06
 -0.10858272E-05  0.13486856E-05  0.20549673E-05 -0.51939195E-06 -0.92190913E-06
 -0.28693701E-06 -0.26301951E-04  0.12339440E-05  0.23896015E-04  0.32693082E-04
 -0.21758837E-04  0.18382386E-04 -0.11309145E-04 -0.31475110E-05 -0.27847781E-06
 -0.66467856E-06 -0.18521968E-05 -0.10396049E-06 -0.16530286E-05  0.10962574E-05
 -0.98095257E-06  0.21797136E-05 -0.74722309E-06 -0.53568360E-07  0.83101071E-05
  0.10873774E-05  0.36607658E-05 -0.11557044E-04  0.16390329E-04  0.74418872E-05
  0.42036122E-05  0.94983132E-05  0.93667388E-05  0.13022944E-05  0.12856996E-05
  0.44492221E-06 -0.98474087E-06 -0.47702647E-06 -0.31329159E-07 -0.18494069E-07
  0.18005636E-05  0.50337045E-06 -0.15185147E-05  0.92713011E-06 -0.17474438E-05
 -0.11084873E-05 -0.10329575E-06  0.86085935E-06 -0.64664144E-06 -0.15989718E-06
  0.53853182E-06 -0.16424036E-06 -0.76530392E-06  0.10715141E-05  0.14738328E-05
 -0.10775385E-05 -0.12828671E-05 -0.10648616E-05  0.31954745E-06 -0.97788888E-06
 -0.88163496E-06 -0.11002416E-05 -0.82701349E-06 -0.96171769E-06 -0.19839442E-05
  0.21685248E-05 -0.10836253E-05  0.12929746E-05 -0.60523106E-06  0.33636346E-05
  0.26192676E-05 -0.11801298E-05 -0.34596833E-06  0.23109641E-06  0.18622250E-05
 -0.28818406E-05  0.19158213E-06 -0.35672023E-06 -0.51027245E-05  0.31634753E-04
  0.31637963E-04  0.67296080E-06  0.10310129E-04  0.48555816E-04 -0.28314336E-05
 -0.15720833E-04  0.22245825E-04 -0.72440978E-06 -0.69725859E-06  0.25377075E-06
  0.81541907E-06  0.10474604E-05 -0.16430429E-05 -0.56318636E-06  0.52150414E-06
 -0.46306938E-07 -0.20789604E-04 -0.12907852E-04 -0.21061696E-04 -0.68856575E-05
 -0.64548338E-05 -0.91737218E-05 -0.53242513E-05 -0.87692877E-05  0.16142185E-04

  0.49250680E-06 -0.58689423E-06  0.18902249E-05  0.55362272E-06  0.16566736E-06
 -0.53971662E-06  0.19679051E-05  0.11489543E-05 -0.84655099E-06 -0.35169956E-05
  0.69306352E-05 -0.95791786E-06 -0.11726806E-05  0.38493492E-05 -0.36357961E-05
  0.53824753E-06 -0.25433815E-05 -0.27815791E-07  0.77129216E-04  0.40835671E-04
  0.25034721E-04  0.32748591E-04  0.63444896E-04 -0.23567812E-04 -0.68515213E-04
 -0.24177777E-04 -0.28776661E-04  0.42678005E-05  0.34885688E-05 -0.11145604E-05
  0.12662906E-05 -0.10850443E-04  0.50308894E-05 -0.65329849E-05 -0.56816053E-06
 -0.53072728E-06  0.19919167E-04  0.14877870E-04  0.51934562E-05  0.21917551E-04
 -0.21999415E-04 -0.94806876E-05  0.68250825E-05  0.13883731E-04  0.19242731E-04
  0.20908830E-05  0.43885212E-04  0.37237798E-06 -0.62745760E-06  0.34293903E-06
 -0.62065781E-06  0.66357012E-06  0.96071655E-06 -0.15511502E-05 -0.45175716E-06
  0.37281163E-06  0.29517105E-05  0.30437139E-06  0.87185899E-06  0.93761189E-06
  0.53390359E-06  0.86430753E-06  0.31693829E-05 -0.19443426E-05 -0.17760242E-05
  0.32477086E-06  0.14474965E-05  0.57814284E-05 -0.12152508E-05 -0.89706772E-06
 -0.43534313E-07  0.11352035E-07  0.64902606E-06  0.10772099E-05  0.14388017E-05
  0.17995435E-06 -0.81559556E-06  0.52054015E-06  0.69793342E-06 -0.16598255E-05
  0.76567993E-06  0.27943288E-06 -0.19617661E-05 -0.21177996E-05 -0.89917913E-06
  0.66919256E-06  0.36157249E-06 -0.78504485E-07 -0.59756277E-06  0.10349212E-05
 -0.25961022E-05  0.26514170E-04 -0.16899586E-05 -0.18308913E-04  0.33048657E-04
 -0.14044827E-05 -0.94090033E-05 -0.37626964E-05  0.16703706E-04  0.64794385E-09
  0.23058615E-05  0.39812726E-06  0.13634776E-05  0.41982831E-05 -0.19733919E-06
 -0.52910559E-06  0.17773249E-05 -0.60698301E-06  0.31379523E-04  0.39985485E-04
 -0.17044911E-04  0.64891465E-05 -0.30825357E-04  0.80544540E-04  0.80734108E-05
 -0.32488456E-04 -0.18696765E-04 -0.12595087E-05  0.18086936E-05 -0.10821751E-05
  0.68137914E-06  0.10565846E-05  0.77407065E-06 -0.15695979E-05 -0.76166018E-06
  0.63495964E-06  0.23255434E-04 -0.58719697E-04  0.90022690E-05 -0.35333019E-04
  0.43627536E-04  0.13148856E-04  0.21490274E-04 -0.74784618E-05 -0.12368333E-04
  0.28629784E-06 -0.27326759E-06  0.13097479E-06  0.93661242E-07  0.35464829E-05
 -0.11826913E-05  0.76802826E-06 -0.12868099E-05 -0.33015368E-05  0.11912598E-04
  0.32978678E-05  0.16226024E-05 -0.36299446E-05  0.86732616E-05 -0.10562528E-04
  0.53234332E-05  0.98080292E-05  0.50470035E-04  0.12429229E-05  0.31316421E-05
  0.12552807E-06  0.35411503E-06 -0.18831712E-05  0.54635112E-06 -0.14091658E-05
  0.10987759E-05 -0.57866187E-06 -0.59790660E-06 -0.33726992E-05 -0.64220260E-06
  0.21758751E-07 -0.11908645E-05  0.11104675E-05 -0.19821592E-05  0.67972548E-06
 -0.35972034E-06 -0.76743149E-07  0.29821150E-06  0.10802814E-05 -0.21761221E-08
 -0.63172899E-06 -0.77315025E-07 -0.85722825E-06  0.23687709E-06 -0.40956283E-06
 -0.10314138E-05  0.69072956E-06 -0.14227580E-05 -0.10038465E-05  0.32166703E-05
 -0.13015367E-05  0.20203675E-05 -0.37988054E-06  0.10105878E-05 -0.87221549E-06
  0.22816018E-05 -0.31396879E-05 -0.16548044E-05 -0.33632807E-05  0.29772327E-05
 -0.23361362E-05 -0.10670318E-05  0.93442442E-06  0.87221052E-05 -0.13609793E-04
 -0.96392893E-05  0.40312344E-05 -0.26589705E-05  0.29819636E-04 -0.95342291E-05
 -0.55426317E-04  0.84344492E-05 -0.24644429E-05  0.14471613E-05 -0.15188704E-05
 -0.73233232E-06 -0.13899061E-05  0.16110568E-05  0.31528455E-05 -0.12221456E-05
  0.12523360E-05  0.25887345E-04 -0.35032484E-04 -0.28597091E-04 -0.42572576E-04
  0.15935649E-04  0.80575854E-06 -0.20492578E-04  0.18985024E-04 -0.21926393E-04

  0.16440990E-05 -0.11479168E-05 -0.29202719E-05 -0.12306434E-05  0.24896475E-05
 -0.35679065E-05 -0.74254287E-06 -0.54875147E-06  0.37951098E-06 -0.74743778E-06
 -0.11195547E-05 -0.63232851E-06  0.77192176E-06 -0.76217532E-06 -0.31158693E-05
 -0.18123609E-05  0.28673773E-06 -0.10320177E-05 -0.30067512E-04 -0.31503531E-04
  0.24761823E-04  0.43014674E-04  0.37247324E-04 -0.46946918E-04  0.24668915E-04
 -0.28168638E-04 -0.47212547E-06 -0.84407977E-06  0.25339999E-05 -0.13064207E-05
 -0.67253531E-07  0.22169587E-05 -0.21882668E-05  0.60901355E-06 -0.21520193E-05
  0.23134942E-05  0.15266817E-04  0.88594377E-05  0.17784078E-04  0.37837183E-05
 -0.19525051E-04 -0.38566748E-05 -0.69674224E-05  0.12582563E-04 -0.11635080E-04
  0.33375145E-05  0.37237798E-06  0.35742425E-04 -0.80010261E-07  0.50886623E-06
 -0.27526633E-06  0.12636144E-06 -0.14682437E-05  0.12001684E-05  0.90941453E-06
  0.45002392E-05  0.14267263E-05 -0.18099233E-05  0.10881456E-05  0.36259309E-05
  0.17457006E-06  0.38132059E-06  0.26617858E-05  0.27237280E-06  0.49567920E-06
 -0.16981221E-05 -0.16664562E-05  0.46176240E-06  0.76835191E-06  0.27116864E-06
  0.15879277E-05  0.22014260E-06 -0.22761818E-05 -0.19412859E-06 -0.15974195E-05
 -0.15308721E-05  0.24441762E-05 -0.38239831E-06 -0.58066582E-06 -0.11536942E-05
 -0.95690943E-06  0.81691557E-07 -0.63713985E-07  0.33000250E-05  0.24920065E-06
  0.21837343E-05 -0.18150583E-05 -0.50533074E-06 -0.38288801E-06 -0.14864186E-05
 -0.65059062E-05  0.70921548E-06  0.83914075E-05  0.11566214E-04 -0.15110414E-04
  0.67075360E-05  0.84647545E-05 -0.15682605E-04  0.26523048E-05 -0.48544623E-07
 -0.82309778E-06 -0.24249979E-06 -0.99661927E-06 -0.80793746E-06 -0.19172297E-06
 -0.18876337E-05 -0.85087205E-06  0.85001108E-06 -0.53235119E-05 -0.13532634E-05
 -0.24989969E-04  0.99450206E-05  0.14310012E-04 -0.44447841E-06 -0.68442020E-05
 -0.78620663E-05  0.32310810E-04  0.81283258E-06 -0.46970493E-06 -0.17180001E-05
  0.44941551E-06 -0.28874959E-05 -0.15059188E-06 -0.10167182E-05  0.37912258E-05
  0.17080018E-05  0.19903616E-04  0.23726981E-04 -0.24474828E-04 -0.27231038E-04
 -0.26659032E-04  0.16118305E-04  0.12563883E-04  0.33239907E-04  0.69370831E-05
  0.93022503E-06 -0.16860735E-05  0.12561620E-05 -0.11619254E-05 -0.12490928E-05
  0.30090097E-06  0.46338944E-06 -0.16635489E-05  0.16893256E-05 -0.77214358E-05
 -0.11326358E-04 -0.14335781E-05  0.37439992E-05 -0.38588395E-05  0.17268865E-04
  0.44599975E-05  0.28751859E-05 -0.46197730E-05 -0.33736759E-06 -0.10760508E-06
  0.29505439E-05  0.95608802E-06 -0.30254839E-05  0.33268201E-05  0.82334806E-06
  0.10519850E-06  0.31384279E-06 -0.11040290E-05  0.12698395E-05 -0.90874902E-06
  0.64983696E-06 -0.14473568E-05 -0.12691311E-05  0.83831439E-06 -0.12970286E-06
 -0.58804073E-06  0.12278843E-05  0.81294764E-06 -0.60092792E-06 -0.54278204E-07
  0.62790812E-06 -0.11820595E-05 -0.17153210E-06 -0.60514849E-06 -0.21243151E-05
 -0.11385644E-05 -0.19514544E-05 -0.98677626E-06  0.56076756E-06 -0.17336213E-05
  0.24158379E-05 -0.62418533E-07  0.23234899E-05 -0.16144065E-05 -0.29559976E-05
 -0.12786538E-05  0.26960441E-05  0.12193475E-05 -0.17921507E-05  0.24848518E-05
 -0.18861822E-05  0.30462810E-05 -0.22103975E-05  0.32084368E-05 -0.14348012E-05
  0.69621962E-05 -0.34060841E-04  0.85640819E-05  0.62485904E-04  0.46278948E-05
  0.36047821E-05  0.39508656E-04  0.10670603E-05 -0.14523216E-06 -0.56341709E-06
  0.86326029E-06 -0.68469040E-06 -0.34034261E-07  0.28604018E-06 -0.88372181E-06
 -0.12325502E-05 -0.77048642E-05  0.16964232E-04 -0.27620659E-04 -0.23907122E-04
  0.24989514E-04 -0.34738400E-04  0.13661349E-04 -0.29714295E-04  0.42338601E-06

  0.15335308E-05  0.18578630E-05 -0.59053994E-06  0.30070117E-05  0.61419883E-06
  0.17890364E-05  0.21515336E-06  0.84857932E-06  0.37705234E-06 -0.61238165E-07
 -0.28737083E-06  0.23574905E-05  0.21232166E-05 -0.16998639E-05 -0.93985359E-06
  0.40543368E-06 -0.19749521E-06 -0.67828551E-06 -0.16980003E-04  0.16851071E-04
 -0.10667951E-06 -0.10096501E-03 -0.88628750E-05  0.34848802E-04 -0.21039796E-04
 -0.22234791E-04 -0.49746319E-05 -0.31341677E-06 -0.10819625E-05 -0.24935923E-05
 -0.61185999E-05  0.24242222E-05  0.38953167E-05  0.45633982E-05 -0.16077052E-05
  0.15062454E-05 -0.16556194E-04  0.23420545E-04 -0.69253011E-05 -0.33156966E-04
  0.37589990E-04  0.52383746E-05  0.12132790E-04  0.47949677E-06  0.24264567E-04
  0.44304707E-06 -0.62745760E-06 -0.80010261E-07  0.40797744E-04 -0.17429575E-04
 -0.12666221E-04 -0.40434391E-06  0.35529124E-05 -0.17032820E-05  0.28604463E-05
  0.19015132E-05  0.29361885E-05 -0.27635386E-05  0.12784252E-05  0.27795025E-05
 -0.16181818E-05  0.14369087E-05  0.35256210E-05 -0.40591671E-06 -0.11494695E-06
  0.40994861E-06  0.29539356E-05 -0.49733573E-06  0.15933763E-05 -0.11988354E-05
  0.99449122E-06  0.98141245E-07 -0.16883898E-05  0.12500880E-05  0.18094340E-05
 -0.39000313E-05  0.29366798E-05  0.84507104E-06 -0.33383913E-06 -0.11913351E-05
 -0.67098383E-06  0.13070631E-06 -0.26323158E-05 -0.17529508E-05  0.25192380E-05
 -0.20218791E-05  0.12730964E-05  0.13204679E-06 -0.14209663E-05 -0.10279447E-05
  0.19545523E-04 -0.66272743E-06 -0.12809072E-04 -0.45526970E-05  0.21584153E-05
 -0.46461992E-05  0.71182656E-05  0.58814979E-05  0.74614314E-05  0.12095397E-05
  0.91202371E-08 -0.15620124E-05 -0.92268356E-06  0.81532009E-06  0.18128600E-05
  0.14775795E-05  0.94902040E-06  0.59827776E-06 -0.24878606E-04  0.26425283E-05
 -0.15728826E-04  0.56310649E-04  0.70905392E-05 -0.13243070E-04  0.99331957E-05
  0.19357656E-04  0.61617715E-05 -0.27669442E-05 -0.10788268E-05 -0.99513725E-06
 -0.37952253E-05  0.23811829E-05 -0.42300082E-06  0.15536399E-06 -0.53654570E-06
  0.79605816E-06  0.98829118E-06 -0.32911777E-04  0.53470074E-05  0.25578753E-04
 -0.16135429E-04  0.10624411E-04 -0.29685933E-04  0.68154347E-05  0.11008539E-04
 -0.82130865E-06 -0.17202779E-05  0.98452040E-06  0.36170754E-06  0.63871599E-07
 -0.17396447E-05  0.80016461E-06 -0.13113552E-05  0.10015751E-05  0.40188254E-05
  0.85510961E-06 -0.53011311E-05  0.10261028E-04 -0.28202282E-05 -0.94819365E-05
  0.10261479E-04 -0.91142488E-05  0.16201644E-04 -0.97717363E-06  0.71989096E-07
 -0.18422797E-05 -0.43440952E-05  0.30610200E-05  0.13430815E-05 -0.35379908E-06
  0.15975391E-05  0.79334027E-06  0.17299136E-05  0.10341132E-05  0.66562238E-06
 -0.22923171E-05  0.91737415E-06  0.16791820E-05  0.18794810E-05 -0.97813894E-06
 -0.44004183E-06  0.34086770E-06  0.47853087E-07 -0.77423599E-07  0.31251979E-06
  0.68984513E-06  0.51613020E-06  0.41625941E-06  0.84049257E-06  0.20975995E-07
 -0.21587558E-06  0.84721902E-06  0.22498527E-06 -0.84579788E-06  0.12672227E-05
 -0.20306755E-06 -0.16804148E-05 -0.20267165E-05 -0.10237004E-05 -0.10341601E-05
  0.19106723E-05 -0.27600143E-05  0.13789181E-06  0.29452927E-05 -0.15659250E-05
  0.54233392E-06 -0.19097592E-06  0.86313624E-06  0.14976545E-05  0.22229003E-04
  0.27504441E-04  0.27439274E-04  0.28201382E-06 -0.54015784E-04  0.14763168E-04
  0.24968417E-04 -0.20894651E-04 -0.20290857E-05 -0.57939946E-07 -0.95142428E-06
 -0.28525018E-05  0.34172686E-05 -0.37173208E-06  0.18515129E-06 -0.16504432E-05
  0.49536663E-06  0.18329787E-04 -0.60944939E-05  0.77236097E-05 -0.31327708E-04
  0.13106779E-04 -0.90945768E-05 -0.65615218E-06 -0.14966654E-04 -0.47424738E-05

 -0.23746287E-06  0.26289087E-05 -0.32596011E-06 -0.28465548E-06 -0.13770802E-04
  0.39317197E-05 -0.32071408E-05 -0.16685227E-06  0.61604598E-06  0.85648166E-06
  0.76844060E-05 -0.11507459E-05 -0.19423270E-05  0.44399495E-05 -0.14491691E-05
  0.21651593E-05 -0.77653823E-06  0.16108987E-05  0.94359993E-05  0.11925369E-04
  0.13967949E-04  0.25778799E-04  0.55685498E-04 -0.39454624E-05  0.32156252E-04
 -0.13670816E-04 -0.45280672E-04  0.35843640E-05  0.51574899E-05 -0.10121204E-05
  0.28956202E-05 -0.68369279E-05  0.53545164E-05 -0.54190114E-05  0.65419509E-06
 -0.73617487E-06  0.23676333E-04 -0.14209034E-05 -0.72230846E-05  0.91551813E-05
 -0.95833958E-04  0.49216128E-05 -0.40563281E-04 -0.41908087E-05 -0.37060118E-04
  0.78709736E-06  0.34293903E-06  0.50886623E-06 -0.17429575E-04  0.72399269E-04
 -0.17243930E-04  0.63465930E-05 -0.95001471E-07  0.26725177E-05 -0.22977307E-05
  0.61909284E-05 -0.96385962E-06  0.51135617E-06  0.12415368E-05 -0.11048960E-05
  0.80767561E-06  0.13638438E-05  0.16372827E-05 -0.65367496E-06 -0.64030701E-05
  0.45429916E-06  0.69804582E-06 -0.82475311E-05  0.25379441E-05 -0.56830072E-06
 -0.36311875E-06  0.11117829E-05  0.29807243E-05  0.63652446E-06 -0.16690253E-05
  0.13476027E-05 -0.71168440E-05  0.17494825E-05  0.20479190E-05 -0.59283768E-06
  0.11608375E-05 -0.37921713E-06 -0.25863240E-05  0.27319933E-05 -0.20342724E-05
  0.40420369E-05 -0.92996664E-06  0.23044436E-05 -0.97171561E-06 -0.12199417E-05
  0.85948222E-06 -0.54724851E-05  0.60500158E-05  0.67092115E-07  0.63601161E-04
 -0.76633623E-05  0.15969230E-05 -0.12856826E-04  0.88377006E-06 -0.86025117E-06
  0.91182063E-06 -0.29738977E-05 -0.28693587E-06 -0.81773764E-05  0.39961076E-05
 -0.27793929E-05  0.53380666E-07  0.18168833E-05 -0.61211589E-05 -0.49499579E-04
  0.39025410E-05  0.26294847E-04 -0.31192988E-04  0.15384702E-04 -0.24835832E-04
  0.79377952E-05  0.44340103E-05  0.11968153E-05 -0.79724041E-07  0.15600168E-05
 -0.18269660E-05  0.33247702E-05  0.10206168E-05 -0.20265854E-05  0.24076525E-06
  0.21972423E-06 -0.13293060E-04  0.21600822E-04 -0.12844585E-04 -0.21824164E-05
  0.53588276E-04 -0.37293144E-04 -0.37692767E-04  0.69867032E-06 -0.70626638E-05
 -0.21642256E-06 -0.10825094E-05  0.18628737E-05  0.18574127E-05 -0.45729520E-05
  0.23526998E-07  0.55084497E-06  0.30892789E-06 -0.15964567E-05  0.18459477E-05
  0.15088087E-04  0.19135138E-05  0.80339497E-05 -0.30235145E-04 -0.75390311E-05
  0.16859639E-04  0.87718150E-05 -0.13330294E-04  0.39325655E-07 -0.81101504E-06
  0.18967331E-05  0.36417004E-05 -0.65284677E-05 -0.12640521E-05  0.16225238E-05
 -0.13838592E-05 -0.23689139E-05 -0.12037952E-06 -0.85009373E-06 -0.41017270E-06
  0.23378829E-05 -0.79059698E-05  0.19311240E-05 -0.29282607E-05  0.75699573E-06
  0.14807804E-05  0.29989760E-06  0.19239935E-05  0.15795830E-05  0.68812036E-06
  0.13138301E-06  0.43356815E-06  0.11572611E-06 -0.84980425E-07  0.82752933E-06
  0.13348198E-05 -0.39478759E-05  0.15713830E-06  0.13299649E-05 -0.59660939E-05
  0.42458827E-05 -0.13116104E-05 -0.50079483E-06 -0.22961634E-05  0.30155433E-05
  0.31570828E-05 -0.24322177E-06  0.37961267E-05 -0.68491689E-05  0.26583787E-05
  0.13106268E-05  0.13239265E-05 -0.26150297E-05 -0.34712945E-04 -0.48018661E-04
  0.13115462E-04 -0.16250351E-04 -0.39014435E-05 -0.41438486E-06  0.33865554E-04
  0.43403733E-05 -0.20626950E-04 -0.12833939E-05 -0.28488467E-06 -0.14552054E-05
  0.25046378E-05 -0.36507497E-05 -0.31422320E-06 -0.29974045E-05  0.34666957E-06
  0.77766252E-06  0.22191932E-04 -0.13243296E-04  0.32036235E-04  0.79882499E-04
 -0.24432715E-04  0.23442506E-05  0.24560140E-04 -0.14943227E-04 -0.36629964E-04

 -0.10440913E-05  0.12988164E-05  0.95732720E-06  0.10179713E-05  0.37954975E-05
 -0.31506767E-05 -0.28066571E-07  0.43011318E-06 -0.13598605E-05 -0.20654759E-05
 -0.37851408E-05 -0.27897816E-05 -0.86145906E-06  0.85092874E-07  0.18932106E-05
 -0.11681730E-05  0.36021533E-06 -0.26617779E-06 -0.16329535E-04  0.26350778E-05
  0.57367063E-05  0.11736415E-04 -0.82653651E-05 -0.79727812E-04 -0.19833426E-04
  0.84949043E-05  0.12730601E-05  0.10122773E-06 -0.22816038E-05 -0.19465343E-05
  0.29145256E-05  0.36009758E-05 -0.41761294E-05  0.28422135E-05  0.59886542E-06
  0.56090198E-06  0.18755549E-05  0.21839806E-04  0.28820588E-04  0.13548663E-04
  0.38787159E-04  0.34774441E-04  0.19239899E-04  0.30602035E-04  0.32939499E-04
 -0.19782860E-05 -0.62065781E-06 -0.27526633E-06 -0.12666221E-04 -0.17243930E-04
  0.55879023E-04 -0.15688777E-05  0.27172637E-05  0.28156171E-05  0.15792401E-05
 -0.39548681E-05  0.38180860E-06  0.37060994E-05 -0.32400285E-05 -0.11556957E-05
  0.99354762E-06 -0.13813925E-05 -0.58148124E-05  0.94021254E-07  0.12051534E-05
 -0.18970419E-05  0.17354407E-05  0.33997831E-05 -0.30001384E-05  0.20521830E-06
  0.37363725E-06 -0.16701998E-05 -0.73700481E-06 -0.61634784E-06  0.20274858E-05
 -0.49603762E-07  0.24317826E-05 -0.23907990E-05 -0.55668961E-06 -0.93725912E-06
  0.39142768E-06  0.16241180E-05  0.34380176E-05 -0.97528650E-06  0.12559965E-05
  0.19227326E-06 -0.36731285E-05 -0.68314145E-07  0.58559777E-06 -0.24417096E-05
 -0.11964066E-04 -0.12781068E-04  0.66434326E-06  0.12990138E-04  0.33170526E-05
 -0.44064160E-04 -0.46277495E-05  0.89119683E-05 -0.12984618E-04 -0.11293142E-05
 -0.13265224E-05  0.16630436E-05 -0.16251909E-06  0.32918001E-05 -0.17380941E-05
 -0.19906666E-06 -0.10441612E-05 -0.84892444E-06  0.41097611E-05  0.16307849E-04
 -0.34548307E-04 -0.92292402E-05  0.32963753E-05  0.22779236E-04  0.14065160E-04
 -0.33567131E-05  0.56393376E-06  0.18712540E-05 -0.21130323E-05  0.27964975E-06
  0.20396082E-05 -0.13666684E-05 -0.10752616E-05  0.12066724E-05  0.13790251E-05
  0.18495623E-06  0.55660866E-05  0.11962680E-04  0.50674536E-04  0.10519135E-04
 -0.98513377E-05  0.36383923E-04  0.30358559E-08 -0.56939695E-05 -0.21234483E-04
  0.76700241E-06 -0.13555393E-05 -0.17618741E-05 -0.25627026E-05  0.27794096E-05
  0.40907348E-05 -0.79537482E-06  0.20220725E-06 -0.31021645E-05 -0.13320835E-04
  0.89358232E-06  0.10864477E-04 -0.66931252E-05  0.13379708E-04  0.85673147E-05
  0.40218380E-05  0.89053622E-05 -0.73268988E-05 -0.21067047E-05  0.93654616E-06
 -0.15970462E-05  0.13678057E-05 -0.36820191E-06 -0.17408281E-05 -0.14276115E-05
  0.54598998E-06  0.17577814E-05  0.15702199E-06  0.72635317E-06  0.12190327E-05
  0.26168118E-05  0.21382027E-05 -0.62004752E-05 -0.26019543E-06 -0.14698348E-05
  0.18468195E-07  0.43882203E-07  0.73070700E-06 -0.12347105E-06  0.27499018E-06
  0.12544267E-05 -0.27065482E-05 -0.86274403E-07 -0.15724903E-06  0.92593763E-06
 -0.89516692E-06  0.26467300E-05  0.50839656E-06 -0.91749508E-06  0.45452759E-05
 -0.12469130E-05 -0.29383992E-06  0.24192435E-05  0.39557449E-05 -0.35281838E-05
 -0.19853869E-05  0.90133045E-06 -0.26375371E-05  0.45914491E-05 -0.21199574E-05
 -0.11176407E-05 -0.77035528E-06 -0.19879663E-05  0.12915365E-04 -0.42600596E-05
  0.14015137E-04  0.21493802E-05  0.22240524E-04 -0.80886298E-04 -0.25620073E-04
  0.36928861E-05 -0.22051606E-04  0.42827549E-07 -0.70462204E-06 -0.20742195E-05
 -0.15108884E-06  0.11474146E-05  0.65677222E-06  0.78439491E-06 -0.10778064E-05
 -0.12349689E-05  0.16201025E-04  0.23202679E-04 -0.51158624E-05  0.69261126E-05
  0.63364006E-05 -0.53566521E-05 -0.12143692E-04  0.79749642E-06 -0.14045363E-04

  0.50643418E-06 -0.19721673E-05 -0.77812257E-06  0.55296132E-06 -0.18312397E-05
  0.30682012E-06 -0.18436861E-05  0.52591038E-06 -0.23858421E-06  0.14749909E-07
  0.35083794E-05  0.16041263E-06 -0.56837245E-06  0.78058914E-06 -0.11330593E-05
  0.14393217E-05  0.35112309E-07 -0.78158904E-06 -0.88251895E-05  0.14154117E-04
  0.16684064E-04  0.12617934E-04  0.40769597E-04 -0.12525942E-04  0.45290489E-04
 -0.68474112E-05 -0.18685848E-04  0.94764512E-07  0.47307912E-05 -0.92004378E-06
  0.30803437E-05 -0.65721338E-05  0.33811570E-05 -0.13907427E-05  0.24710308E-06
 -0.14105125E-05 -0.42969204E-05  0.69740157E-06 -0.21095838E-05 -0.12297953E-05
 -0.26173479E-04  0.41935901E-05 -0.25720812E-04  0.55735189E-05 -0.12071763E-04
  0.10205379E-05  0.66357012E-06  0.12636144E-06 -0.40434391E-06  0.63465930E-05
 -0.15688777E-05  0.22353304E-04  0.44042669E-06  0.22649777E-05 -0.29639429E-06
  0.27892196E-05  0.41850805E-06 -0.10932259E-06  0.12375588E-05  0.21797290E-06
 -0.74092133E-06  0.11931045E-05  0.10169184E-05 -0.44449479E-06 -0.36014798E-06
  0.59396974E-06  0.71884321E-06 -0.18044954E-05  0.67421725E-06 -0.29224634E-06
  0.73595635E-06  0.24363030E-06  0.11102982E-05  0.68496045E-07 -0.22898015E-06
 -0.47392264E-06 -0.49317132E-06  0.95884021E-06 -0.43424794E-06 -0.69200803E-06
 -0.30264982E-06 -0.81024386E-06 -0.43091712E-06 -0.13913373E-05 -0.10684492E-05
 -0.26444528E-05  0.91770833E-06 -0.24544840E-06 -0.83222350E-06  0.13445901E-05
  0.75992357E-05 -0.57900453E-05 -0.51625098E-06 -0.40521699E-05  0.27466585E-04
 -0.42461506E-05 -0.59216158E-05 -0.53863194E-05  0.14789932E-04 -0.34462506E-06
  0.57509411E-06  0.95885202E-07 -0.18801446E-05  0.20946685E-05  0.47389276E-06
 -0.10097887E-05  0.44152113E-06 -0.40688990E-06  0.18649709E-05 -0.98345826E-05
 -0.61244487E-05 -0.12968434E-04  0.26927269E-04 -0.68713640E-05  0.20103823E-05
  0.24700121E-04  0.84217048E-05  0.38828541E-06  0.19933407E-05 -0.13360641E-05
 -0.16113206E-05  0.53266730E-06  0.20508761E-06 -0.10170892E-05 -0.29367507E-06
 -0.56893759E-06  0.13544649E-05  0.25558703E-04 -0.67009424E-05 -0.17552851E-05
 -0.24000116E-04  0.50649382E-05  0.27993023E-05 -0.74420607E-06 -0.10494764E-04
 -0.45317616E-06 -0.85811660E-06  0.11545004E-05  0.12695897E-05 -0.10534250E-05
 -0.55027143E-06 -0.10024576E-05  0.34697573E-06  0.41933582E-06  0.34810470E-05
  0.10741840E-04  0.59571843E-05  0.27429351E-05 -0.16272209E-05  0.16500874E-05
 -0.45300538E-05  0.66567654E-06 -0.99353330E-05  0.64226426E-06 -0.84886810E-06
  0.62955012E-06  0.17525542E-06  0.29374008E-05 -0.20956920E-05 -0.16634448E-05
 -0.21075521E-06 -0.11028337E-05  0.18746716E-06 -0.19289534E-05  0.90187652E-07
  0.81730105E-06 -0.68355233E-06  0.48337851E-06 -0.15091088E-05 -0.39206238E-06
  0.10491488E-05 -0.47154247E-06  0.86059745E-07 -0.45306088E-06 -0.46514582E-06
  0.16536148E-06  0.60897832E-06  0.12539797E-07  0.52280299E-07  0.88654214E-06
  0.47191895E-06  0.14120707E-06  0.16907643E-06  0.10163701E-05 -0.13406699E-05
 -0.75231386E-06 -0.50823256E-07 -0.70354630E-06 -0.49989253E-06  0.21619339E-05
  0.80143415E-06  0.14703059E-05  0.19672233E-05  0.20177662E-05 -0.11544007E-05
  0.10639589E-06 -0.46588804E-07 -0.94646300E-06 -0.10080011E-04  0.40150648E-05
  0.24325623E-04 -0.27178105E-04  0.16029675E-04 -0.13946427E-04  0.84397157E-05
  0.42172605E-05  0.45280182E-05  0.42311806E-06 -0.84840170E-06 -0.57988832E-06
  0.88713091E-07 -0.19419199E-05  0.57447037E-06 -0.95376847E-06  0.24733829E-06
  0.95843153E-06  0.97210740E-05  0.13242206E-04  0.66885250E-06 -0.81475184E-05
 -0.20255555E-06  0.37634226E-05  0.18496342E-06 -0.42178281E-05 -0.61732306E-05

  0.18500804E-06  0.19834651E-05 -0.55995774E-07  0.94521455E-06 -0.47433577E-06
  0.13620249E-05  0.32433234E-06  0.12431105E-05 -0.16893358E-05  0.70955245E-06
  0.92180159E-06 -0.25027195E-05 -0.56213953E-06  0.10635772E-05 -0.11965169E-05
  0.41865320E-06 -0.68826542E-06 -0.12016876E-05  0.68329646E-05  0.17061909E-04
 -0.13657933E-04 -0.27507187E-04 -0.36733723E-05 -0.45567594E-05 -0.21966730E-04
 -0.46462382E-04 -0.17766232E-04 -0.25792325E-05  0.60514717E-06  0.87564440E-06
 -0.11779662E-05 -0.12798247E-06  0.24370315E-05  0.11599220E-05  0.52709763E-06
  0.37150625E-05 -0.77063770E-06 -0.18886506E-04 -0.14268274E-04 -0.19479608E-04
  0.22693816E-04  0.20781509E-04  0.64406250E-05  0.51862559E-06  0.11177404E-04
 -0.19270525E-06  0.96071655E-06 -0.14682437E-05  0.35529124E-05 -0.95001471E-07
  0.27172637E-05  0.44042669E-06  0.22050483E-04  0.13493547E-05  0.24272625E-05
 -0.81339411E-06  0.25009731E-05  0.15606800E-05 -0.48063284E-07 -0.26204785E-06
  0.21635275E-05  0.12008976E-05  0.86193035E-06  0.10302384E-07 -0.95840438E-06
 -0.19117668E-06  0.14678613E-05 -0.12206961E-05  0.23767819E-06 -0.84248068E-07
  0.13466643E-06 -0.39746920E-06  0.19235604E-05  0.65627932E-06 -0.33633502E-06
 -0.15098025E-05  0.13629358E-06 -0.15731871E-05 -0.11957207E-05 -0.23504962E-05
  0.40109608E-06 -0.47248146E-06 -0.19666915E-05  0.87267569E-06 -0.14373707E-05
 -0.34729981E-06  0.65426573E-06 -0.28028044E-05  0.61595750E-07 -0.39505264E-06
  0.10366102E-04 -0.21401738E-05  0.71597356E-05 -0.82564859E-06 -0.10576420E-04
 -0.32456450E-05  0.59332234E-05 -0.17315693E-05  0.38561358E-05 -0.57741740E-06
  0.16585241E-05 -0.61469634E-06  0.88810599E-06  0.22624887E-07  0.22419831E-06
 -0.32400908E-07 -0.75337840E-06 -0.82616131E-06 -0.18495308E-04  0.10614552E-04
 -0.97686869E-06 -0.95149077E-06 -0.99609122E-06  0.14880800E-04  0.47091969E-05
  0.18542127E-04  0.11653273E-04 -0.55220272E-06 -0.54117132E-06  0.20612631E-05
 -0.33042813E-06  0.29751051E-07  0.74969797E-06  0.26717660E-06 -0.19703587E-05
  0.16373001E-05  0.57287081E-05 -0.38906657E-05  0.32838249E-04  0.74427998E-05
  0.78923531E-05 -0.22098248E-04 -0.93190525E-05  0.18705989E-04 -0.23860209E-04
  0.37199970E-06 -0.89302078E-06  0.16747001E-06 -0.23524928E-06 -0.13679938E-05
  0.48177679E-06 -0.64066167E-06 -0.14964757E-05 -0.21935685E-05 -0.67050509E-05
 -0.52040144E-05 -0.18436629E-05 -0.83905803E-05  0.62504503E-05  0.10814052E-06
  0.93966918E-05  0.11051911E-05  0.20713288E-04 -0.95935852E-06  0.40891041E-06
 -0.19032441E-05  0.14003377E-05 -0.67228317E-06  0.49666770E-06 -0.91113137E-08
 -0.23384991E-05 -0.85289705E-06  0.48790039E-06  0.84488820E-06  0.14526409E-05
 -0.78432917E-06  0.52354624E-06 -0.16047170E-05  0.82829101E-06 -0.13289513E-05
 -0.66696265E-06  0.12390154E-06  0.92777638E-06  0.29436679E-06  0.27978533E-06
 -0.41994797E-06 -0.29760461E-07  0.88611253E-07 -0.67526674E-06 -0.30127151E-07
 -0.93661923E-07  0.10450635E-05 -0.93096802E-06 -0.12608623E-05 -0.13134564E-06
  0.16888099E-05 -0.41434581E-06 -0.10367625E-05 -0.20238447E-05 -0.21993456E-05
  0.23103775E-05 -0.38031456E-05 -0.15844589E-05  0.17082056E-05 -0.73848701E-06
 -0.15239380E-05 -0.15417454E-05  0.48210160E-06  0.20542328E-04 -0.61542332E-05
 -0.61462852E-05  0.26689562E-04  0.28024561E-05 -0.16054467E-04 -0.10758707E-04
 -0.25869603E-04 -0.22817106E-04 -0.20332502E-05 -0.40633196E-06 -0.16409939E-05
 -0.10994768E-05  0.14150069E-05 -0.22260506E-05  0.80276818E-06 -0.15581330E-05
  0.24179743E-06  0.28643709E-05 -0.10299974E-04  0.26797726E-04  0.35874971E-05
  0.23721842E-05 -0.14315741E-04 -0.36667599E-05 -0.12361781E-04 -0.58720625E-05

  0.78853556E-06  0.46131208E-06  0.13047053E-05  0.12232248E-05  0.29419168E-06
 -0.28088367E-05 -0.12136397E-05 -0.16881043E-05 -0.11575797E-05 -0.14569609E-06
  0.46386680E-06 -0.14775623E-05 -0.18626447E-06 -0.25021680E-05  0.92331181E-06
  0.38940111E-06 -0.37238143E-06  0.23175061E-05 -0.38549346E-05  0.14279050E-04
  0.14932935E-04  0.24160131E-04  0.13308681E-04 -0.39216112E-04  0.44026428E-05
 -0.23741474E-04  0.31834929E-05 -0.64226425E-06  0.63846178E-06 -0.24932053E-05
  0.23334180E-06  0.10579554E-05 -0.11023328E-05 -0.75790050E-06  0.27246146E-05
  0.32193994E-05 -0.50776882E-05 -0.17239293E-04 -0.52508471E-05 -0.70105504E-05
  0.15148798E-04  0.67467785E-05 -0.72686760E-06 -0.56585148E-05 -0.11299051E-04
 -0.15253895E-06 -0.15511502E-05  0.12001684E-05 -0.17032820E-05  0.26725177E-05
  0.28156171E-05  0.22649777E-05  0.13493547E-05  0.31342599E-04  0.41964544E-06
 -0.11029000E-05 -0.40424065E-05  0.23982220E-05  0.30752090E-05 -0.69995049E-05
 -0.64837516E-07  0.36219233E-06 -0.42952536E-05  0.46873440E-06 -0.11022796E-06
  0.19916781E-06  0.13653582E-06  0.71469175E-06 -0.18464674E-05  0.55836602E-06
 -0.93697559E-07 -0.90070298E-06 -0.22420873E-06  0.28146554E-05 -0.17512261E-05
 -0.77105976E-06  0.16145982E-05  0.99515479E-06 -0.36790914E-06  0.11760777E-05
 -0.33261162E-05 -0.83089056E-06  0.14261673E-05  0.10922376E-05 -0.56854799E-06
 -0.98197242E-06 -0.12372016E-05  0.80188041E-06 -0.79570350E-06 -0.76840440E-06
  0.21153190E-05 -0.31658274E-04  0.90817827E-05  0.25227558E-05 -0.15528051E-04
 -0.35223158E-05  0.79699777E-05 -0.23855502E-05  0.13265690E-05  0.10686600E-05
  0.58662637E-07  0.69691445E-06 -0.99852992E-07 -0.13074156E-05  0.11969628E-05
 -0.11008645E-05 -0.44834611E-06 -0.24147217E-05 -0.10114951E-04  0.13362164E-04
  0.15845743E-04 -0.16024115E-04  0.31872218E-04  0.11278875E-04 -0.88148419E-05
  0.73041506E-05  0.30917104E-05  0.45929698E-06  0.23624058E-06 -0.27321153E-06
  0.35677851E-06 -0.40414378E-06 -0.20355095E-05 -0.45940364E-06 -0.73939429E-06
 -0.49542436E-06 -0.52500948E-05  0.17118634E-04 -0.58225640E-05 -0.20469865E-05
 -0.18451913E-05  0.17085218E-04 -0.15083178E-04  0.18782065E-05 -0.99039136E-05
  0.12110634E-05 -0.13616842E-05  0.71741779E-06  0.78547573E-07 -0.44637156E-06
 -0.13708954E-06  0.83365448E-06 -0.69004925E-06  0.18588392E-05  0.45847358E-05
  0.56884534E-05 -0.43412355E-05  0.51452409E-05 -0.30197190E-04 -0.22002029E-05
 -0.78704853E-05 -0.19921761E-05 -0.12554196E-04 -0.18480730E-07  0.57129499E-06
 -0.32044954E-06  0.37274542E-06 -0.68883085E-06 -0.24415949E-06 -0.17193993E-06
  0.50456171E-07 -0.31827177E-05 -0.35360108E-08 -0.91107638E-06 -0.20098925E-05
  0.96717561E-06 -0.24279925E-05 -0.13031450E-05  0.35768498E-06  0.82960725E-06
 -0.24899236E-05 -0.56247884E-06  0.15441616E-05 -0.37862060E-07 -0.13372589E-05
  0.11207151E-05  0.10862522E-05  0.84438999E-06  0.25791510E-07  0.67451966E-06
  0.87562999E-06  0.55095507E-06  0.14095359E-05 -0.59274148E-06 -0.34305122E-05
  0.32735124E-05 -0.90182721E-06 -0.15949933E-05  0.61975194E-06  0.95046742E-06
  0.12100243E-05  0.37381123E-05  0.95721565E-06 -0.25436265E-05  0.53029321E-06
 -0.16115379E-05  0.20038017E-05  0.21827240E-06  0.55719871E-05  0.15125745E-05
 -0.85918077E-05 -0.25679153E-05 -0.28984447E-04  0.64938055E-04 -0.45009383E-05
 -0.31859529E-04  0.36573687E-04  0.24231234E-06  0.12875568E-05 -0.11785917E-05
 -0.17333867E-06 -0.55367611E-06  0.89063104E-06  0.10154799E-05  0.31777672E-06
 -0.50939858E-06  0.34367134E-06  0.10678230E-04  0.17110141E-04  0.98023986E-05
 -0.16134735E-04  0.44571839E-06  0.11358954E-06 -0.12963820E-04  0.21330868E-04

  0.10181811E-05  0.89708536E-06 -0.11550985E-05  0.69996652E-06  0.18454284E-05
  0.12080466E-05  0.50084469E-06  0.11108741E-05  0.56550203E-06  0.50689615E-06
  0.25685977E-06 -0.28267771E-06  0.12155999E-05 -0.12037988E-05 -0.16522404E-05
  0.19981488E-05 -0.85391845E-06 -0.87879233E-06 -0.14649570E-04 -0.12805041E-04
  0.52312998E-05 -0.25708538E-04 -0.26621690E-04 -0.18117428E-04 -0.23723670E-04
 -0.14004477E-04 -0.77478461E-05 -0.85636559E-07  0.96897072E-06 -0.27931645E-05
  0.82117662E-06  0.60951246E-06 -0.45617525E-06  0.21625263E-05  0.13602199E-05
 -0.48775262E-06  0.19595460E-06  0.15312091E-04  0.33026288E-05  0.42117796E-05
  0.42452384E-06 -0.58599255E-05  0.38630319E-05  0.20664422E-04 -0.10042500E-04
  0.73651650E-06 -0.45175716E-06  0.90941453E-06  0.28604463E-05 -0.22977307E-05
  0.15792401E-05 -0.29639429E-06  0.24272625E-05  0.41964544E-06  0.29337871E-04
  0.36292506E-05  0.43721070E-05 -0.15203789E-05  0.15099563E-05  0.80518229E-06
 -0.41938579E-06 -0.13840026E-05  0.23624516E-06  0.63736003E-06 -0.22929118E-06
 -0.13906701E-05 -0.73041697E-06  0.73901169E-06 -0.21692719E-05  0.66755299E-07
 -0.90045362E-06  0.33731593E-06  0.31927063E-06  0.39837226E-05  0.33097906E-06
 -0.91755305E-06  0.33569514E-05 -0.57027361E-06 -0.65648390E-06 -0.75436338E-06
 -0.12800998E-05 -0.11939811E-05 -0.14128702E-05 -0.43201498E-06  0.21703461E-05
 -0.22939292E-05 -0.64469264E-06 -0.21861872E-06 -0.12261452E-06 -0.15670070E-05
 -0.16098643E-04 -0.24748488E-04 -0.66324912E-07 -0.72314943E-05 -0.63590462E-05
  0.48432419E-05 -0.14622391E-05  0.45748312E-05  0.13438171E-04  0.72318739E-06
 -0.82411667E-07  0.13276112E-05 -0.27682176E-05 -0.80412977E-07  0.14482570E-05
 -0.98687095E-06 -0.14861134E-05 -0.81355430E-06 -0.53295953E-05  0.36206719E-06
 -0.12647942E-04  0.12122153E-04  0.41858943E-04 -0.24984282E-05 -0.31121191E-05
  0.78687934E-05  0.16594645E-04 -0.14534102E-05  0.20673582E-05 -0.15612365E-05
 -0.77765696E-07  0.31489667E-06 -0.19554565E-05 -0.55814584E-06 -0.62293551E-06
  0.19192293E-06 -0.49133233E-06  0.20978553E-04 -0.11398807E-04  0.62711391E-05
 -0.29549872E-04 -0.25492392E-04  0.36534590E-05  0.80022943E-05 -0.89795406E-05
  0.65340816E-06 -0.11200898E-05 -0.37482952E-06 -0.12779411E-05 -0.46265796E-06
  0.99918296E-06 -0.24148461E-06 -0.37810934E-06  0.10805098E-05 -0.91236687E-05
  0.11671071E-04 -0.50482323E-05  0.65709332E-05 -0.30181660E-04  0.21871035E-05
  0.43731827E-05  0.59075388E-05  0.78504662E-05 -0.23757753E-05  0.15374756E-06
 -0.11417062E-05 -0.11090102E-05 -0.43284422E-06  0.35355487E-06 -0.18162068E-06
  0.16073871E-05  0.63191725E-06  0.23879546E-05 -0.10400299E-06  0.49339603E-06
 -0.48553479E-06 -0.36919551E-05 -0.22715726E-06 -0.56734625E-06 -0.10400347E-05
 -0.34582824E-06 -0.53341510E-06  0.88652100E-06 -0.95021151E-06  0.27407928E-06
 -0.11670607E-05 -0.19344702E-06  0.16389438E-06  0.84388691E-06 -0.18951770E-06
  0.30852359E-06  0.32400261E-06 -0.12532277E-05 -0.97083153E-06 -0.29346075E-06
 -0.20307781E-06 -0.11753917E-05  0.61137757E-06 -0.92778197E-06 -0.15661755E-05
  0.45337529E-06 -0.76803180E-06 -0.21584433E-05  0.34303249E-05 -0.18012420E-05
 -0.11863827E-05 -0.87619831E-06 -0.14473352E-05  0.14058388E-04 -0.73954247E-06
  0.27716140E-04  0.18493149E-04  0.27073040E-04 -0.64240738E-04  0.12654567E-04
  0.95916846E-05 -0.12805352E-04  0.30988499E-06  0.99911026E-06 -0.82983444E-06
  0.14549297E-05  0.24181947E-06 -0.10544327E-05 -0.79045664E-06 -0.67093920E-06
  0.13643668E-05  0.18194859E-04 -0.87613529E-05  0.25702441E-04  0.10923912E-03
 -0.10364428E-04 -0.35470562E-04 -0.66372925E-05  0.27027443E-04  0.20992590E-04

 -0.97847230E-06 -0.33307639E-06  0.81154497E-07 -0.75054344E-06  0.25363945E-05
  0.10434621E-05  0.54524460E-06  0.47933914E-06  0.17229737E-05  0.39066340E-06
  0.36090909E-05  0.15389863E-05 -0.25672865E-06  0.12731316E-05  0.94172482E-06
  0.69624842E-07  0.26389397E-06 -0.23249911E-05  0.50355571E-04  0.50199365E-04
  0.31979730E-04 -0.14253243E-04  0.46090529E-04 -0.11376796E-05  0.49883393E-04
  0.18987194E-04  0.23921360E-04  0.12967016E-05 -0.18372336E-05 -0.32055726E-05
  0.15801716E-05 -0.29290895E-05 -0.12415637E-05  0.74735513E-06 -0.50214251E-06
  0.16667204E-05 -0.51503533E-05  0.13919579E-04 -0.82156685E-05  0.14612109E-04
 -0.16030835E-04  0.13118782E-04  0.44076756E-05  0.15750545E-04 -0.26579806E-05
  0.15953117E-05  0.37281163E-06  0.45002392E-05  0.19015132E-05  0.61909284E-05
 -0.39548681E-05  0.27892196E-05 -0.81339411E-06 -0.11029000E-05  0.36292506E-05
  0.44036411E-04  0.11789547E-05 -0.14957755E-05  0.22189675E-05  0.32181434E-05
  0.21589283E-06  0.34872002E-06  0.32806618E-06  0.85914524E-06 -0.18311185E-05
 -0.19970694E-05  0.22868487E-05 -0.87471017E-06 -0.47772494E-06  0.49687194E-06
  0.25587000E-05 -0.10979614E-06  0.28953744E-05  0.15244945E-05  0.10679240E-05
 -0.99167743E-06  0.38159455E-05  0.20703570E-06  0.37605405E-05 -0.17704374E-05
  0.40741558E-06  0.14810154E-05 -0.75129466E-06  0.79220049E-07  0.17319446E-05
 -0.28766148E-05  0.10220780E-05  0.22392063E-05 -0.18288234E-05 -0.12136819E-06
 -0.47440276E-05 -0.19245227E-04 -0.76617638E-06  0.65920549E-05  0.12568371E-04
 -0.74665148E-05 -0.17865870E-04 -0.26982872E-05 -0.16417786E-04 -0.27719467E-06
 -0.19971309E-05 -0.29602368E-05 -0.26051554E-05  0.80997072E-06 -0.24827460E-07
 -0.11388044E-05 -0.70904092E-06  0.12427599E-05 -0.16346332E-04 -0.41710944E-04
 -0.22369044E-04  0.13088857E-04  0.41070695E-04 -0.66952502E-04  0.17747856E-04
  0.11358610E-04 -0.11207723E-04  0.67069657E-06 -0.22466115E-05 -0.11591156E-05
 -0.13127328E-05  0.29763132E-05  0.13783725E-05 -0.20900596E-06  0.56643135E-06
  0.50116566E-06 -0.23698132E-04  0.38086166E-04  0.29442717E-04  0.45869034E-04
 -0.74939362E-04 -0.94365313E-05 -0.31923857E-04 -0.17883192E-05  0.10011605E-04
 -0.14800729E-05 -0.10881808E-05  0.38938862E-07  0.10507717E-05 -0.39028637E-06
  0.77474390E-08 -0.78159178E-06 -0.49289762E-06  0.21518641E-05  0.42578243E-05
  0.27740105E-05 -0.76397509E-07  0.43926453E-06 -0.59896254E-05  0.32667308E-05
 -0.98120991E-05 -0.23216324E-05  0.20026317E-04 -0.54198183E-06 -0.51670927E-06
  0.13273921E-05  0.14475743E-06 -0.20090898E-05  0.82066553E-06 -0.46943162E-06
  0.17148470E-05  0.15800851E-05  0.14234314E-05  0.10994223E-05  0.58908548E-06
  0.15765228E-05 -0.20547243E-05  0.10171373E-05 -0.13986483E-05 -0.46589805E-06
  0.23239254E-05 -0.66894641E-06  0.26692364E-06 -0.51777374E-06  0.35930643E-06
  0.14057806E-05 -0.10453979E-05 -0.17500210E-06  0.49327839E-06 -0.18269030E-05
 -0.93950705E-06  0.48738552E-06 -0.13319452E-05 -0.14652003E-06 -0.96363088E-05
  0.39426239E-05 -0.18909882E-05  0.28518081E-06 -0.12030952E-05  0.31538316E-05
 -0.24851584E-05 -0.12628399E-05  0.15538164E-05 -0.86783665E-06  0.19850764E-05
  0.15656854E-05 -0.32211305E-07 -0.19359644E-05 -0.33527357E-04  0.13176950E-04
  0.47591754E-04 -0.13023381E-05 -0.20614133E-04 -0.94060698E-04  0.13255690E-04
  0.18265307E-04 -0.14128966E-04  0.19470847E-05 -0.41478624E-06  0.21873663E-05
 -0.71816208E-06 -0.14635970E-05  0.14399185E-05 -0.19257391E-05 -0.43310564E-06
  0.39954366E-06 -0.19823562E-04  0.32808981E-05 -0.25323228E-04 -0.40871044E-05
 -0.16858438E-05 -0.33864614E-04  0.11960185E-04 -0.18678592E-04  0.11156389E-04

 -0.86316703E-06 -0.16525569E-05 -0.56389009E-06  0.11796292E-05  0.17986626E-05
  0.23114508E-06  0.14626817E-06  0.20730884E-05  0.55534398E-06 -0.92946367E-08
  0.29268238E-05  0.11582654E-05  0.32425348E-06  0.98305807E-06 -0.41543398E-05
  0.29657748E-06 -0.61207490E-06  0.20339432E-05  0.23655092E-04  0.12536872E-04
  0.15850495E-04  0.39294445E-05 -0.13201594E-04 -0.54880241E-05 -0.33214530E-04
 -0.41643597E-04 -0.18368279E-04 -0.12729039E-05  0.14885070E-06  0.21280564E-05
  0.12605425E-05 -0.19071034E-05  0.50729183E-05 -0.10373582E-05  0.87191286E-06
  0.89915837E-06 -0.18728500E-05  0.19979596E-05  0.15395479E-04  0.90025434E-05
 -0.35636563E-04  0.28995231E-04 -0.60408104E-05  0.45671384E-06 -0.50810384E-06
  0.11265302E-05  0.29517105E-05  0.14267263E-05  0.29361885E-05 -0.96385962E-06
  0.38180860E-06  0.41850805E-06  0.25009731E-05 -0.40424065E-05  0.43721070E-05
  0.11789547E-05  0.38191248E-04  0.79209591E-06  0.98999671E-06 -0.23189150E-05
 -0.12482870E-06  0.20743775E-05  0.25348439E-05 -0.12370439E-05 -0.69098877E-06
  0.27874542E-05 -0.27406387E-05 -0.13361054E-05  0.65317563E-05  0.83325671E-07
 -0.33887816E-05 -0.99961947E-06  0.12344696E-05 -0.17329942E-05  0.24286907E-05
  0.35075149E-07 -0.28128499E-06 -0.40799792E-06 -0.14320748E-05 -0.21994906E-06
 -0.19679633E-06 -0.11117763E-05 -0.56657183E-06 -0.53759506E-05 -0.11013112E-05
  0.10716648E-05  0.22375790E-05 -0.10175482E-05  0.45259162E-06 -0.11062419E-05
  0.43627929E-05 -0.18127028E-04 -0.18116203E-04 -0.54150181E-05 -0.15895670E-05
  0.14139186E-04  0.58745542E-06  0.76965135E-05 -0.13435391E-04  0.77647102E-06
  0.29012464E-06  0.10573329E-05 -0.17671920E-06  0.51572699E-07 -0.76149624E-06
 -0.53041336E-06 -0.59072316E-07 -0.71179633E-07 -0.19641305E-04  0.80762525E-05
  0.72023793E-05  0.43656338E-04 -0.15083506E-04 -0.17053784E-04  0.13115214E-04
  0.50121005E-04  0.48514361E-05 -0.15547399E-06 -0.17580911E-05  0.10537552E-05
 -0.21306919E-05  0.16752325E-06  0.11504894E-05 -0.95408854E-07 -0.73383505E-06
  0.12478746E-05 -0.44018051E-04  0.33636586E-04  0.55257938E-04  0.55900052E-05
  0.32364138E-06 -0.21243274E-05 -0.10879688E-04 -0.19980657E-04 -0.43870876E-05
 -0.41754178E-06 -0.21713518E-06 -0.11004392E-05  0.49576397E-06 -0.10611951E-05
  0.65909598E-07  0.75960810E-06  0.96186501E-06 -0.23695824E-05 -0.35492767E-05
  0.14913708E-04 -0.38297458E-05  0.82306351E-05  0.71030716E-05 -0.15201559E-04
  0.11285351E-04  0.84942676E-05 -0.38622465E-05 -0.10047300E-05 -0.43910197E-06
 -0.23679679E-05  0.47407037E-06 -0.18021011E-06  0.22840653E-05 -0.34869294E-06
  0.66994464E-07  0.17968888E-05 -0.21622311E-06  0.12563595E-05  0.41373298E-05
 -0.12377086E-05  0.15546565E-05 -0.18427498E-07 -0.48254087E-07 -0.89992735E-06
 -0.13144106E-05 -0.79051262E-06 -0.38056638E-06 -0.44133683E-06  0.86200946E-06
  0.14069087E-05  0.19899209E-06 -0.55949608E-06  0.50533023E-06  0.10864168E-05
 -0.10656947E-05 -0.60640372E-06 -0.52505359E-06  0.14261863E-05  0.68327016E-06
 -0.17564069E-05  0.24284994E-06 -0.56676085E-06 -0.19410884E-05 -0.31812620E-06
  0.22917549E-05 -0.54025104E-06 -0.12302654E-05  0.10649303E-05 -0.47865286E-06
 -0.10268208E-05 -0.30000450E-05  0.11301835E-05  0.19435438E-04  0.97272598E-05
  0.12243734E-04  0.22161333E-04  0.34165125E-05  0.12531268E-04 -0.14864057E-05
  0.31557155E-05 -0.17932440E-04 -0.26026402E-06 -0.81283511E-06 -0.76877009E-06
  0.79449307E-06 -0.57348407E-06 -0.85567792E-06  0.14299706E-05 -0.19565303E-06
  0.91107750E-07  0.16488579E-04 -0.63275813E-05  0.56189527E-04  0.48389465E-04
 -0.53421879E-05  0.51962960E-05  0.60081730E-05  0.89700934E-05 -0.41109283E-05

 -0.11096680E-05  0.87961115E-06 -0.56526839E-06 -0.12095294E-05  0.91776336E-07
  0.18842510E-05  0.81249668E-07 -0.60194501E-06 -0.14903372E-05 -0.28937775E-05
  0.21697377E-05  0.10681866E-05 -0.23061189E-05  0.37358234E-05  0.16687490E-05
 -0.66988315E-06 -0.66141507E-06  0.21747365E-05  0.34959625E-05  0.15458201E-04
 -0.51796179E-05  0.16513269E-03 -0.50549416E-04 -0.38245655E-04 -0.57770771E-04
 -0.45140992E-05 -0.61147186E-05 -0.52242767E-06 -0.11167394E-05  0.79551529E-06
 -0.21356296E-05  0.33429074E-05 -0.13849356E-05  0.25612319E-06 -0.17603484E-05
 -0.17792410E-05  0.85188671E-05 -0.26832132E-06  0.24297797E-05  0.75360887E-05
  0.98441735E-05 -0.17362203E-05  0.99534016E-05  0.18139406E-04  0.89307561E-05
 -0.25425750E-06  0.30437139E-06 -0.18099233E-05 -0.27635386E-05  0.51135617E-06
  0.37060994E-05 -0.10932259E-06  0.15606800E-05  0.23982220E-05 -0.15203789E-05
 -0.14957755E-05  0.79209591E-06  0.44852569E-04 -0.18226417E-04 -0.16958695E-04
  0.13111119E-05  0.31656234E-05 -0.49750809E-06 -0.17594803E-05 -0.31627769E-06
  0.94712016E-06 -0.24731639E-05  0.15142220E-05  0.13909820E-05  0.82161671E-06
 -0.39268673E-05 -0.12490651E-05  0.64659117E-06  0.30154596E-06 -0.86994462E-06
 -0.33814789E-05  0.10460986E-06  0.19972682E-05  0.10795404E-05 -0.94355552E-07
 -0.75390248E-06  0.34751503E-06 -0.33876632E-06  0.62850433E-06 -0.39820598E-05
  0.25148395E-05  0.16477643E-05 -0.14355757E-05 -0.13325834E-05 -0.46733611E-06
  0.41175300E-05  0.73523271E-05 -0.78387860E-05 -0.98018720E-06  0.14428280E-04
 -0.59304408E-05 -0.31449868E-05 -0.66078299E-06  0.15154592E-04  0.39878123E-07
  0.93111334E-06 -0.60151769E-06  0.12034387E-05  0.31467328E-05 -0.10231545E-05
 -0.13026768E-05  0.90290440E-06 -0.49768868E-07  0.44898691E-05 -0.46801876E-05
 -0.98255130E-05  0.26112523E-04 -0.16029728E-04  0.21469213E-04 -0.12149993E-04
 -0.25988041E-04 -0.15147250E-04 -0.12769111E-05 -0.22863486E-05 -0.47151671E-06
 -0.13402535E-05  0.27879213E-06  0.18526987E-06  0.11729145E-05 -0.21874959E-06
  0.39026332E-06  0.30371322E-05 -0.29231794E-04 -0.25160263E-05  0.20254656E-04
 -0.12507881E-04  0.41514363E-05  0.75147004E-05  0.16899239E-04  0.14868181E-05
  0.40952547E-06  0.16295203E-06  0.16155055E-05 -0.27074390E-05  0.40060947E-06
  0.33503467E-05 -0.65779697E-07 -0.21793086E-06 -0.57815036E-06 -0.54939541E-05
 -0.17303833E-04  0.17956108E-04 -0.21125670E-04  0.29210852E-04 -0.17468407E-06
 -0.70423382E-05  0.64390332E-06  0.23010806E-05 -0.83491129E-06  0.67306061E-06
 -0.16888822E-06 -0.74479382E-06 -0.44273962E-06  0.15254788E-05  0.37102702E-06
 -0.14786778E-06  0.21260623E-06 -0.22477864E-05 -0.70963602E-06  0.83568787E-07
 -0.13639882E-05  0.26631803E-05 -0.21206890E-06 -0.16354094E-05  0.12612648E-05
  0.35592531E-06  0.46021149E-06  0.95436087E-06  0.23024154E-06 -0.11898748E-06
  0.11536725E-05  0.10208179E-05  0.97001912E-06 -0.69604753E-06  0.78996423E-06
  0.15466501E-06 -0.11334387E-05  0.90913730E-06  0.37506086E-05  0.32474125E-05
 -0.13507416E-05 -0.65221635E-06  0.10451194E-05  0.16034334E-05  0.56842593E-06
  0.19747781E-05 -0.10437585E-05 -0.36826262E-05  0.27010383E-05  0.78324917E-06
  0.16560132E-05  0.93918023E-07  0.93704989E-06 -0.19840599E-04  0.13462175E-04
  0.52254190E-04  0.77290111E-05  0.17149945E-04  0.18568074E-04  0.14162540E-05
  0.12473131E-04 -0.11737286E-04 -0.13763229E-05 -0.11852993E-07 -0.36356774E-06
 -0.10433095E-05  0.25715760E-05  0.16522447E-05  0.21149870E-05  0.10593637E-05
 -0.93926331E-07  0.94858202E-05 -0.19594874E-05  0.32800848E-05 -0.80546900E-04
  0.19752501E-04  0.30912765E-04 -0.75089309E-05 -0.19033676E-05 -0.40348635E-04

 -0.20602206E-06 -0.24988794E-05 -0.13407901E-05  0.11735621E-05  0.22058497E-05
 -0.21253793E-05 -0.89969571E-08 -0.11971513E-05  0.11677503E-05  0.73597308E-06
  0.10222991E-05  0.47966633E-05  0.23495223E-05 -0.42365880E-05 -0.60407118E-07
  0.13445346E-05  0.44515498E-06 -0.13262424E-05  0.35336070E-04  0.60542584E-04
  0.14058529E-04  0.95368750E-05 -0.65809749E-04 -0.15774696E-05 -0.12824789E-04
  0.15847576E-06 -0.11379494E-05  0.53615656E-06 -0.10883719E-05 -0.78413767E-06
  0.30689618E-05 -0.82071213E-05  0.48296879E-06 -0.97693015E-06 -0.26744195E-06
  0.47869078E-07  0.14769725E-05  0.87967358E-05 -0.41180852E-05  0.72833226E-05
  0.34022798E-04  0.13337065E-04  0.15282366E-04  0.12115601E-04  0.67578681E-06
 -0.35263324E-06  0.87185899E-06  0.10881456E-05  0.12784252E-05  0.12415368E-05
 -0.32400285E-05  0.12375588E-05 -0.48063284E-07  0.30752090E-05  0.15099563E-05
  0.22189675E-05  0.98999671E-06 -0.18226417E-04  0.73836659E-04 -0.14406051E-04
  0.39657183E-05  0.19612488E-05  0.65097895E-05 -0.46603273E-06 -0.10700091E-05
  0.29887423E-05 -0.97763281E-06  0.15527677E-05  0.26735504E-05 -0.52156165E-07
 -0.65973214E-06 -0.23196037E-05 -0.31791734E-05  0.10031580E-05  0.22983249E-05
  0.18467570E-05  0.58655844E-06  0.15617745E-05 -0.43219935E-05  0.21592931E-05
  0.16814481E-05 -0.19490249E-05  0.98080728E-06 -0.16071867E-05  0.24581599E-05
 -0.12117761E-04  0.20534545E-05  0.29769270E-05  0.40254698E-06  0.86253893E-06
 -0.12622018E-04 -0.12002653E-04 -0.49267552E-05 -0.43682562E-05 -0.14222342E-04
  0.24242248E-04 -0.10733265E-04  0.13314764E-04  0.42217745E-07  0.23802258E-05
 -0.39682730E-05  0.55323045E-06  0.13473872E-05 -0.72323064E-05 -0.38818782E-06
 -0.92516353E-06  0.92141262E-07  0.28092146E-05 -0.68997480E-06 -0.29961305E-04
 -0.28717334E-04 -0.23809162E-04  0.86012016E-04 -0.37903253E-04 -0.97093728E-05
  0.70632677E-05 -0.10201285E-04 -0.32110395E-05 -0.14921419E-05 -0.71679493E-06
  0.42004427E-07  0.97809679E-06  0.44823421E-06  0.77730727E-06 -0.19205125E-05
 -0.11692302E-05 -0.15475953E-05 -0.26946593E-04 -0.32305799E-05  0.34862715E-04
 -0.11880867E-03  0.19595548E-04  0.29789870E-04 -0.82218383E-05 -0.12432292E-04
 -0.22058440E-06  0.13930976E-05 -0.83027532E-06  0.90147219E-06  0.27156902E-05
  0.70243444E-06 -0.85336483E-07 -0.34317733E-06 -0.70204508E-06  0.75893778E-05
  0.11301624E-04 -0.80936195E-05  0.23239808E-04 -0.50214251E-04 -0.99292512E-05
  0.94387461E-06  0.27479594E-05  0.10833735E-04 -0.41187811E-06  0.91466762E-06
 -0.10675761E-06 -0.23999470E-06  0.11005675E-05  0.71506365E-06 -0.20300304E-07
  0.18056298E-06  0.10155725E-06  0.37329796E-05 -0.39690502E-05  0.15059582E-05
  0.20938379E-05 -0.95759749E-05  0.25160489E-05  0.40564043E-05 -0.88483523E-06
  0.78370201E-06 -0.93040255E-06 -0.30987246E-05 -0.43939818E-06  0.60592514E-06
 -0.15085644E-05  0.51254832E-06 -0.23360253E-06  0.25309785E-06 -0.17781558E-05
 -0.15531328E-05  0.94270984E-05 -0.10030285E-05  0.20360635E-05 -0.95968751E-05
  0.27790103E-05 -0.55567756E-06 -0.72006730E-06 -0.46038335E-06 -0.24382910E-05
 -0.33309557E-05  0.41221932E-06  0.36022836E-06 -0.29645470E-05  0.95695561E-06
 -0.30748265E-05 -0.21282908E-06  0.22560829E-06  0.31462886E-04 -0.26036681E-04
 -0.21791490E-04  0.15779141E-04 -0.78082124E-04 -0.10684048E-05 -0.16235628E-04
 -0.50178398E-04  0.75144619E-05  0.28473979E-05  0.27478893E-05  0.74259169E-06
  0.28255395E-05 -0.65481135E-05  0.23341182E-05 -0.70224645E-06 -0.11579031E-07
  0.14334057E-05 -0.53421598E-05 -0.15827288E-04  0.41732545E-05 -0.11484516E-04
 -0.89012816E-05  0.21149858E-04 -0.84449021E-05  0.86271834E-05  0.32095743E-04

 -0.82459478E-08 -0.93796929E-06  0.41061524E-06  0.63194795E-06  0.20083117E-06
 -0.11820239E-05  0.67474860E-06  0.66784128E-06  0.22618634E-05  0.52349826E-06
  0.15817977E-05 -0.30869257E-05  0.74617688E-06  0.20549098E-05 -0.59218293E-05
  0.43176597E-06  0.18021122E-05  0.15320595E-06  0.14199044E-04 -0.17247713E-04
  0.16334136E-04 -0.29323100E-04  0.14407804E-04  0.64482734E-04  0.27162415E-04
  0.15956545E-05 -0.52383232E-04  0.29410325E-06  0.94225327E-06 -0.34346894E-05
 -0.15983760E-05 -0.93422397E-06  0.75571343E-05  0.17052368E-06  0.39088293E-06
  0.11868366E-05  0.62509678E-05  0.66279622E-05 -0.49182270E-05 -0.43498000E-06
 -0.38419919E-04 -0.43944460E-05 -0.29612524E-04 -0.14614425E-04 -0.46557426E-05
  0.42062080E-06  0.93761189E-06  0.36259309E-05  0.27795025E-05 -0.11048960E-05
 -0.11556957E-05  0.21797290E-06 -0.26204785E-06 -0.69995049E-05  0.80518229E-06
  0.32181434E-05 -0.23189150E-05 -0.16958695E-04 -0.14406051E-04  0.58379679E-04
  0.26884076E-06  0.38278557E-06  0.21928969E-05  0.32482277E-05  0.63396951E-06
 -0.41520384E-05  0.26745068E-05  0.13696843E-05 -0.28479894E-05 -0.16795717E-05
  0.39939232E-05  0.69843617E-05 -0.39178579E-06 -0.61079522E-06 -0.36330167E-06
  0.13150104E-05  0.23232700E-05 -0.55011370E-05  0.20237491E-05  0.59411297E-06
 -0.98445625E-06 -0.45843440E-06  0.25891465E-05  0.95605931E-06  0.96645467E-06
  0.40380008E-05 -0.15689559E-05  0.52405318E-06  0.10232356E-05  0.17175699E-05
  0.85885408E-05 -0.77426196E-05  0.91680905E-05 -0.16253276E-05  0.66001672E-05
 -0.11372380E-04 -0.52415930E-05  0.73263507E-05 -0.22741172E-04 -0.11907875E-05
  0.12538673E-06 -0.15951476E-05 -0.14353831E-05 -0.69181417E-06  0.42366288E-05
  0.11480453E-05 -0.12567752E-05  0.17444704E-05 -0.83457664E-05 -0.19326870E-04
 -0.34555626E-05  0.20282919E-04 -0.13744421E-04 -0.32684993E-04  0.48711671E-05
  0.21310586E-04  0.32345086E-04  0.12704994E-05  0.35269077E-06  0.42872774E-05
 -0.11825152E-06  0.53930239E-06  0.19166877E-05 -0.14729408E-05  0.14094315E-05
  0.14040345E-06 -0.51307977E-05  0.27048356E-04  0.33128195E-04 -0.10478728E-04
  0.38319809E-04 -0.16803564E-04 -0.21302429E-04 -0.30750665E-05  0.24675729E-05
  0.25928670E-05 -0.13852561E-05  0.18340980E-05  0.69556025E-06  0.11079643E-05
 -0.23709337E-05 -0.13612793E-05  0.19355891E-05  0.14939997E-05 -0.15515534E-04
 -0.20094910E-06 -0.11546546E-06 -0.86412212E-05 -0.20126947E-05  0.82790653E-05
  0.99622870E-05 -0.36302433E-06 -0.32613937E-04 -0.18018728E-06  0.12581793E-05
  0.28749614E-06  0.13150009E-05  0.45327203E-06 -0.42086196E-05 -0.84831329E-06
 -0.11620202E-05 -0.16998655E-05 -0.93819880E-06  0.53503873E-06  0.49599475E-06
  0.44959566E-07  0.15674070E-05 -0.21384020E-05 -0.28739460E-06 -0.13301545E-05
 -0.60122464E-06  0.39980586E-06  0.61385675E-06  0.70593465E-06  0.66167931E-06
 -0.59167334E-06 -0.11418267E-05 -0.74627607E-06 -0.20024590E-06 -0.11544304E-05
  0.99450885E-06 -0.31757836E-05 -0.16447343E-05 -0.11967366E-06  0.20944864E-05
 -0.29299028E-05  0.78842708E-06  0.13689135E-05 -0.28093945E-05 -0.44454758E-06
  0.60244973E-06 -0.51414011E-06  0.14068737E-05 -0.45722861E-06  0.11037001E-05
 -0.67836903E-07  0.17951888E-06  0.12638422E-05  0.79624994E-06  0.18067203E-04
 -0.94826166E-05 -0.15342232E-04  0.10349364E-04  0.47970679E-04 -0.17717007E-05
  0.83458944E-05  0.15209494E-04  0.34062359E-06 -0.77795400E-06  0.91272135E-06
  0.59299990E-06  0.19358055E-05 -0.39126854E-05 -0.28259971E-07 -0.10557925E-05
  0.79048957E-06  0.13113251E-04  0.83282006E-05 -0.58689940E-05  0.34812752E-04
 -0.57141022E-05 -0.87797291E-05  0.27763224E-04 -0.41115333E-04  0.49677535E-05

 -0.49109720E-06 -0.90308756E-06 -0.68049314E-06  0.46271682E-06 -0.18392919E-05
  0.25937206E-06  0.29403415E-06  0.19195339E-06 -0.70787768E-06  0.19762500E-06
  0.78961390E-07 -0.16349559E-05  0.79106443E-06 -0.73157318E-06 -0.63977959E-06
 -0.14696554E-05  0.37256989E-06 -0.16522861E-05 -0.10092102E-05 -0.30897164E-04
 -0.17498944E-05  0.52961754E-04 -0.37326667E-04 -0.15045854E-04 -0.11537759E-04
 -0.95296475E-05 -0.17048074E-04 -0.67042813E-06 -0.20427243E-05  0.10842991E-06
  0.49560196E-06  0.54606569E-06 -0.64478346E-06 -0.62139090E-06  0.32631113E-08
 -0.10569807E-05 -0.68820810E-05 -0.74998369E-06 -0.51583717E-05  0.12175697E-04
 -0.27951961E-04 -0.30463776E-05 -0.92315299E-05  0.80374858E-05 -0.16828778E-04
 -0.13004007E-05  0.53390359E-06  0.17457006E-06 -0.16181818E-05  0.80767561E-06
  0.99354762E-06 -0.74092133E-06  0.21635275E-05 -0.64837516E-07 -0.41938579E-06
  0.21589283E-06 -0.12482870E-06  0.13111119E-05  0.39657183E-05  0.26884076E-06
  0.24632717E-04  0.13898904E-05  0.24483370E-05  0.36224698E-06 -0.58334425E-06
 -0.92244207E-06 -0.85474292E-06  0.22771941E-05 -0.23119733E-05  0.43847320E-06
 -0.71475755E-06 -0.59876427E-07 -0.19510911E-06 -0.31199642E-05  0.84575552E-06
  0.26880235E-05 -0.37692404E-05  0.81128774E-06 -0.11301505E-05 -0.68235510E-07
  0.14700780E-05 -0.78953965E-06  0.11224913E-05  0.42876871E-06 -0.97231370E-08
  0.23497629E-05 -0.10460995E-05 -0.18163233E-05  0.64291646E-06 -0.22309212E-07
  0.19540348E-05  0.28408758E-05  0.98599488E-05  0.94820879E-07 -0.24021998E-04
  0.92979491E-05 -0.16614036E-04 -0.34874015E-05 -0.86337734E-05  0.84576114E-06
  0.81292201E-06 -0.73364870E-06 -0.12595913E-05  0.79023797E-06  0.16701492E-05
 -0.18260993E-05  0.39948645E-06 -0.14411054E-06 -0.55477732E-05 -0.67079992E-05
  0.17118934E-05 -0.86968889E-05 -0.17221798E-04  0.14879021E-04 -0.13209933E-05
 -0.11731183E-04 -0.11777904E-04 -0.57966720E-06 -0.21262854E-05  0.27541367E-06
 -0.24216263E-06 -0.16870119E-05 -0.10349831E-05 -0.17709455E-05 -0.13526284E-06
  0.11329648E-05  0.82156648E-08 -0.15067541E-04  0.20898909E-04 -0.10032146E-04
  0.33854772E-04  0.55856770E-05  0.14103959E-05  0.76510672E-05 -0.59661582E-05
 -0.26185914E-07  0.13788041E-05 -0.38750796E-06 -0.11936071E-05 -0.63469184E-07
  0.80575660E-06 -0.95893654E-06 -0.63561795E-06  0.40037597E-06 -0.53765951E-06
 -0.49134223E-05 -0.15967692E-05  0.25558056E-05  0.11155809E-04 -0.13963245E-05
  0.39959982E-05 -0.90376448E-05 -0.28066718E-05 -0.35060445E-06  0.99407491E-06
  0.98660372E-06  0.56379669E-08 -0.83506581E-06  0.85547619E-06 -0.16256350E-05
  0.27170936E-07 -0.39065927E-06 -0.35731524E-06  0.25168653E-06  0.18175955E-05
 -0.14670731E-05  0.35265397E-05 -0.12891640E-05 -0.11994523E-05  0.71930335E-06
 -0.63009706E-06 -0.12653522E-07 -0.50378381E-06 -0.76324891E-06 -0.38724827E-06
  0.39558342E-06 -0.47946263E-06 -0.73317623E-06 -0.10184648E-05 -0.10913619E-05
  0.27277562E-05  0.46675282E-06 -0.14878703E-05  0.74071185E-07 -0.13869963E-05
  0.44019795E-06  0.12183836E-05  0.48746624E-06  0.31061966E-06 -0.18404129E-05
 -0.12481078E-05 -0.19923928E-05 -0.11690497E-05 -0.64640138E-06  0.35493062E-06
 -0.10200766E-05  0.21303010E-06 -0.31410316E-06  0.93780755E-05 -0.14675535E-04
 -0.30876353E-04 -0.94115538E-05 -0.35568692E-05 -0.19370027E-04 -0.66454374E-05
 -0.36009541E-04 -0.28604272E-04  0.11607581E-05  0.90301669E-06  0.45344117E-06
  0.20405203E-05 -0.59691177E-06 -0.54735007E-06  0.69529239E-06 -0.89992918E-07
 -0.40179845E-06  0.47098044E-05 -0.67299320E-05 -0.75707187E-05 -0.50252089E-04
  0.54033147E-05  0.83015955E-05  0.63314861E-08 -0.82418323E-05  0.49800800E-05

 -0.11493130E-06 -0.55182605E-06 -0.25325929E-06 -0.64203893E-06 -0.69939854E-06
  0.46532317E-06 -0.49521131E-06 -0.67559976E-06 -0.23581406E-06 -0.30351813E-06
  0.21257811E-05  0.13805798E-05 -0.81667730E-07  0.10520619E-06  0.14003424E-05
  0.12375608E-05 -0.80884484E-06  0.98447825E-06  0.45957913E-05  0.13237780E-04
  0.79803570E-05  0.49154367E-04 -0.28157913E-04  0.18498912E-05 -0.35482907E-04
  0.91157266E-05  0.12004037E-04 -0.49066321E-06  0.73794525E-06  0.95236573E-06
 -0.16816672E-05 -0.19423392E-06  0.14004564E-05 -0.33868132E-06 -0.26986073E-06
  0.88650753E-06 -0.43711147E-05  0.34941544E-05  0.13791222E-05 -0.10212839E-05
 -0.11643514E-04 -0.12021156E-04 -0.11712574E-04 -0.11721924E-04 -0.15660119E-04
 -0.11754754E-06  0.86430753E-06  0.38132059E-06  0.14369087E-05  0.13638438E-05
 -0.13813925E-05  0.11931045E-05  0.12008976E-05  0.36219233E-06 -0.13840026E-05
  0.34872002E-06  0.20743775E-05  0.31656234E-05  0.19612488E-05  0.38278557E-06
  0.13898904E-05  0.23163372E-04  0.37272528E-05  0.23507679E-06 -0.20354326E-05
  0.35440868E-05 -0.48064192E-05 -0.66441368E-06  0.47503090E-05  0.42302560E-07
 -0.88675816E-06 -0.27010866E-05 -0.42532486E-06  0.13725489E-05 -0.54361606E-06
  0.16140044E-06  0.11479715E-05  0.10154881E-05  0.18775855E-06 -0.19330383E-05
  0.15200545E-05  0.12700651E-05 -0.27442710E-06 -0.46783042E-06 -0.69223046E-06
  0.12584867E-05 -0.10512753E-05  0.36729818E-06 -0.44653575E-06  0.45667617E-06
 -0.44675356E-05 -0.26739881E-05  0.38623674E-05 -0.25674819E-05 -0.71165433E-05
  0.11849726E-04  0.29119985E-05 -0.53778300E-05 -0.32342109E-05  0.10655468E-05
 -0.16578142E-05 -0.43898393E-06  0.21434284E-06 -0.58228670E-08 -0.38499427E-06
 -0.56692383E-06  0.54043563E-06 -0.45278173E-06 -0.95465865E-05 -0.31093931E-05
 -0.43692043E-05  0.12573262E-04  0.63775215E-05 -0.91280953E-05  0.11297536E-05
 -0.19903438E-04 -0.51553304E-05  0.25058771E-06  0.63080388E-06 -0.53475552E-06
 -0.18323401E-06  0.10519595E-05  0.18518952E-06  0.32448292E-06 -0.74774558E-06
  0.89028237E-07 -0.95504788E-05 -0.56487513E-05 -0.32505331E-08  0.25747055E-04
 -0.17755459E-04  0.87272299E-05  0.41743895E-05 -0.70944437E-05  0.73963006E-05
  0.47351019E-06  0.32180812E-06  0.37055712E-05 -0.19858019E-06 -0.10619004E-05
  0.26017623E-05  0.70656186E-06 -0.44881665E-06 -0.18088002E-05 -0.78061383E-06
 -0.20291731E-05 -0.34077373E-05 -0.64302812E-05  0.10163583E-04 -0.96811585E-05
 -0.12119541E-04  0.62543733E-05  0.14858949E-04  0.32692425E-06 -0.43316375E-06
 -0.18449097E-06  0.39283027E-06 -0.22330604E-06 -0.11012930E-05  0.17023388E-06
 -0.19636979E-05 -0.44054944E-06  0.64680884E-06  0.12979512E-05  0.10795723E-06
  0.18133999E-06 -0.12005429E-05 -0.78210532E-06  0.46713103E-06 -0.14157348E-05
  0.11153418E-05  0.13878518E-07 -0.77390672E-06  0.22445930E-06 -0.31373435E-06
  0.46480872E-06 -0.25486709E-06 -0.29478427E-06 -0.10443721E-05  0.19724347E-06
 -0.14699620E-06 -0.52824015E-06  0.10573681E-05  0.12417923E-05 -0.19162242E-05
  0.19179042E-05  0.38760489E-06 -0.61744620E-06 -0.13395097E-05 -0.26238182E-06
  0.14260495E-05  0.46831859E-06  0.69088649E-06 -0.75913676E-08 -0.17379063E-06
 -0.60284150E-06  0.72666396E-07  0.23743077E-06  0.19009937E-04 -0.59268540E-05
 -0.16439388E-04  0.12944188E-04 -0.60078872E-05  0.72444141E-05  0.79537269E-05
 -0.17743503E-04 -0.19944086E-04  0.49488248E-06  0.81911247E-07 -0.50506013E-06
  0.13572165E-05  0.27770973E-06 -0.13048741E-05  0.36771185E-06 -0.81901271E-06
 -0.25473843E-06 -0.26245996E-05 -0.85391999E-05  0.22093903E-04 -0.14451995E-04
  0.77357571E-05 -0.32382077E-04 -0.70934827E-05  0.88960835E-05  0.86534561E-05

 -0.25525171E-06 -0.15122703E-05 -0.11705175E-05 -0.81321335E-06  0.58103367E-06
  0.15713167E-05 -0.12530142E-06  0.10938665E-05  0.70580216E-06 -0.56768079E-06
  0.14693005E-05  0.28931744E-05  0.67147966E-06  0.31748155E-05 -0.31385753E-05
 -0.34160476E-06 -0.36860163E-07 -0.15813542E-05  0.13832774E-04  0.17259061E-04
  0.15730554E-04 -0.19992751E-04  0.52431801E-05  0.13426796E-05 -0.31060780E-04
 -0.28150392E-04 -0.19038315E-04 -0.15794866E-06 -0.34648929E-06 -0.20078640E-06
 -0.47829984E-06 -0.34962734E-05  0.15632644E-05 -0.18480925E-05 -0.15747187E-05
  0.10014066E-05 -0.33577987E-05  0.19255775E-06  0.21787713E-05  0.39493133E-05
 -0.23891272E-04 -0.10427960E-04 -0.13702818E-04 -0.12444124E-04 -0.17590556E-04
  0.29026459E-06  0.31693829E-05  0.26617858E-05  0.35256210E-05  0.16372827E-05
 -0.58148124E-05  0.10169184E-05  0.86193035E-06 -0.42952536E-05  0.23624516E-06
  0.32806618E-06  0.25348439E-05 -0.49750809E-06  0.65097895E-05  0.21928969E-05
  0.24483370E-05  0.37272528E-05  0.33821086E-04 -0.11723556E-05  0.11489530E-05
  0.32977946E-05 -0.15939765E-05 -0.26323996E-05  0.56295789E-05  0.64993885E-07
 -0.27590491E-05 -0.10605154E-06  0.44462537E-06  0.33689209E-05  0.15386706E-05
 -0.23459235E-06  0.28574775E-05 -0.19868880E-05  0.10886324E-05  0.10370746E-05
  0.67009236E-06 -0.88724115E-07 -0.30486043E-05 -0.11639873E-05  0.32399267E-06
 -0.97228922E-06 -0.81045850E-06 -0.71306365E-06 -0.60102183E-06  0.11847546E-05
 -0.20590282E-05  0.20106225E-05  0.77718865E-05 -0.67258785E-06 -0.11295200E-04
 -0.53590163E-05 -0.12757457E-04 -0.14213056E-05  0.21944903E-05 -0.38010168E-07
 -0.46695565E-06  0.12846121E-07  0.49011993E-06  0.26860287E-06  0.20097904E-05
 -0.45157941E-06  0.20250395E-05 -0.21977287E-05  0.28149241E-05  0.35091596E-05
 -0.45648514E-05 -0.30473583E-04  0.24601968E-04  0.20802359E-04 -0.33926738E-05
  0.93188535E-05  0.20922905E-05  0.66122917E-07  0.35469502E-05 -0.26387264E-05
 -0.42538927E-06  0.11858427E-05 -0.39294729E-07  0.21700808E-06 -0.16503806E-05
 -0.22358473E-05  0.15070227E-04  0.44608573E-05 -0.15996867E-04 -0.12585641E-04
 -0.37603312E-05  0.15195033E-04  0.10993505E-04  0.15668008E-04 -0.26499747E-05
 -0.14512305E-06 -0.10053818E-05  0.17786232E-05  0.76781109E-07 -0.21250799E-05
 -0.46511374E-07  0.37071913E-06 -0.72027019E-07 -0.14402213E-05 -0.37319654E-05
 -0.16687899E-05  0.91717492E-05  0.36265797E-05 -0.11646818E-04 -0.15439558E-04
 -0.23179780E-05  0.82835952E-05  0.21331996E-04  0.10841783E-05 -0.12804718E-06
 -0.12397940E-05 -0.43298995E-06  0.17476188E-05 -0.43779165E-06 -0.39241957E-06
 -0.16683388E-06 -0.17904285E-06  0.18881531E-05 -0.71324583E-06  0.48604346E-07
  0.54242457E-06 -0.37475489E-05  0.18011133E-05  0.14719552E-06 -0.38247738E-06
 -0.20968531E-05 -0.43061205E-06 -0.12958551E-06  0.39109936E-06 -0.39382833E-06
 -0.34335145E-06 -0.79817319E-08 -0.82942837E-07  0.11434241E-07 -0.67992044E-06
 -0.14586273E-05 -0.39632054E-07 -0.60909340E-06  0.96730212E-06 -0.49447594E-06
 -0.21859082E-05  0.28022304E-06 -0.50383024E-06 -0.81385861E-06 -0.32455952E-05
  0.88321174E-06 -0.28605154E-05 -0.61182018E-06  0.14702075E-05  0.11268391E-05
 -0.22440309E-05 -0.12241693E-05 -0.12278507E-05  0.11742723E-04 -0.17820288E-04
  0.85072723E-05  0.43042259E-05  0.48167311E-05 -0.11611547E-03 -0.29435517E-04
 -0.29386756E-04 -0.19812130E-05  0.30862200E-06  0.39316702E-06 -0.34354222E-06
  0.58499887E-06 -0.45278827E-06 -0.31446726E-06 -0.21985709E-06 -0.35459576E-07
  0.13030658E-05 -0.11827321E-04 -0.77221523E-05  0.12642655E-04 -0.21680773E-04
 -0.19792543E-04  0.12358502E-04 -0.76817006E-05 -0.81338642E-05  0.11505037E-04

 -0.14112499E-06 -0.93102956E-06  0.62430675E-06  0.40730289E-06  0.64276774E-06
 -0.10718812E-05 -0.11277267E-05 -0.99114923E-06  0.50859531E-07  0.12362755E-05
  0.70548911E-06  0.93225181E-06 -0.21148649E-06 -0.84276604E-06 -0.18165525E-06
  0.78185431E-07  0.63653378E-06 -0.91824606E-06 -0.10838824E-04 -0.15756897E-04
 -0.13970650E-05  0.42785584E-04 -0.27344939E-04 -0.75293298E-05 -0.11392425E-04
 -0.14261370E-05 -0.15055887E-05 -0.19349912E-05 -0.90899770E-06 -0.78132689E-06
  0.60362409E-06 -0.12501475E-06  0.73503564E-06  0.87628954E-06  0.91401189E-06
  0.10049482E-05  0.47866507E-05 -0.46774478E-05 -0.72134363E-05  0.15403412E-04
 -0.20777907E-04  0.19332366E-04 -0.24354043E-05  0.96326430E-05  0.17873122E-05
  0.72079104E-06 -0.19443426E-05  0.27237280E-06 -0.40591671E-06 -0.65367496E-06
  0.94021254E-07 -0.44449479E-06  0.10302384E-07  0.46873440E-06  0.63736003E-06
  0.85914524E-06 -0.12370439E-05 -0.17594803E-05 -0.46603273E-06  0.32482277E-05
  0.36224698E-06  0.23507679E-06 -0.11723556E-05  0.13709545E-04  0.52318260E-06
  0.29130830E-05 -0.70693445E-06  0.47027772E-06 -0.35008280E-06 -0.51538262E-06
  0.33985213E-06  0.53164141E-07 -0.92195674E-06  0.51088312E-06  0.21759775E-06
 -0.47643059E-06  0.79918286E-06 -0.82988976E-06  0.16959892E-06  0.44273474E-06
  0.47534216E-06 -0.52005753E-07  0.25748338E-07  0.64255540E-06 -0.15687854E-06
 -0.13130090E-05  0.49913631E-06 -0.20313365E-06 -0.69083816E-06  0.43589179E-06
 -0.16869681E-05 -0.11357857E-04 -0.16045619E-04  0.27184690E-04 -0.11891445E-04
 -0.38147128E-05 -0.97421664E-05 -0.61381959E-05 -0.10809821E-04 -0.18136849E-05
  0.23441179E-06 -0.23410556E-06 -0.47278552E-06 -0.27865070E-06  0.36844751E-06
  0.97897256E-06 -0.96042217E-06 -0.50272923E-06 -0.69005871E-05 -0.27396983E-06
  0.12660892E-04  0.17700469E-04  0.96312289E-05 -0.30236723E-04  0.54505419E-05
  0.14705355E-04  0.17184185E-05 -0.17165452E-06  0.34558674E-07  0.70799123E-06
 -0.15201229E-05  0.11892574E-05 -0.47938620E-06  0.74223295E-06 -0.33279120E-06
 -0.51163639E-06 -0.33226403E-05 -0.40381672E-05  0.19239626E-04  0.26456809E-04
 -0.23014470E-04 -0.26745344E-05 -0.91546602E-05  0.33863371E-05 -0.79400555E-05
  0.15303430E-05  0.30596615E-06 -0.20613971E-05  0.13769843E-05  0.89958361E-07
 -0.51038545E-07  0.51169251E-06  0.17161185E-05  0.15268877E-05 -0.22771903E-05
  0.11472910E-04 -0.17354275E-04 -0.19657574E-04 -0.16941782E-04  0.31894965E-04
  0.12859252E-05 -0.58464896E-05 -0.10940776E-04 -0.41718981E-06 -0.24087139E-06
  0.84146145E-06  0.11826633E-05  0.61131929E-06 -0.52930837E-06 -0.54930437E-06
 -0.66168646E-06 -0.21511816E-06 -0.10486007E-05  0.14738575E-06 -0.88985313E-06
 -0.61099830E-06 -0.28059867E-06 -0.35383731E-06  0.37045998E-08  0.61665252E-06
 -0.16136700E-06  0.13045328E-05 -0.96235202E-07 -0.16733905E-06 -0.17036463E-06
 -0.15665752E-06  0.63935048E-07  0.36570958E-06 -0.19379593E-06  0.62277302E-06
  0.13812862E-05  0.12107371E-06  0.35174578E-07  0.34115559E-05 -0.23061950E-06
  0.47163522E-06 -0.66778743E-07  0.82773295E-06 -0.74515261E-06 -0.24777636E-06
  0.40536104E-06  0.15736015E-06 -0.15138504E-05  0.14985904E-05 -0.14030213E-06
 -0.58661164E-06 -0.31761011E-06 -0.15892817E-05  0.17329247E-05  0.32198238E-06
  0.81962883E-05  0.26452040E-05  0.13665629E-04 -0.48406701E-04 -0.10529980E-04
 -0.13573923E-04 -0.18646324E-04  0.60508043E-08  0.64321792E-06  0.97938272E-06
  0.42017242E-06  0.10076336E-05 -0.13303577E-05 -0.93004471E-06  0.23777171E-06
  0.25273454E-06 -0.17764965E-04 -0.46832820E-05  0.41395318E-05 -0.11678225E-04
 -0.44454517E-05  0.65048150E-05  0.34179885E-05 -0.40339248E-05  0.46189301E-06

  0.32476814E-07 -0.29722680E-05 -0.10517962E-05 -0.90963839E-06  0.49443486E-05
  0.43249046E-06  0.51055840E-06 -0.51444414E-06  0.54126336E-06  0.13754999E-05
 -0.37369294E-05  0.33265858E-06  0.18102099E-05 -0.12316299E-06 -0.16940365E-05
 -0.14961055E-05  0.51503676E-06  0.70059203E-06  0.13544513E-04  0.25030414E-05
  0.16574988E-05  0.38236305E-04 -0.99270763E-05  0.85459961E-05  0.40470868E-04
 -0.23568341E-05 -0.34093281E-05 -0.30670754E-06  0.10373188E-05  0.56578991E-07
 -0.29052514E-06 -0.25060157E-06  0.32483313E-07  0.30463222E-06 -0.57187762E-06
  0.84234786E-06  0.54527963E-05  0.63010680E-05  0.10552466E-04  0.95345333E-05
  0.10073047E-04  0.53157215E-05 -0.51628102E-05  0.59004731E-05  0.21998767E-04
 -0.87047823E-06 -0.17760242E-05  0.49567920E-06 -0.11494695E-06 -0.64030701E-05
  0.12051534E-05 -0.36014798E-06 -0.95840438E-06 -0.11022796E-06 -0.22929118E-06
 -0.18311185E-05 -0.69098877E-06 -0.31627769E-06 -0.10700091E-05  0.63396951E-06
 -0.58334425E-06 -0.20354326E-05  0.11489530E-05  0.52318260E-06  0.21172807E-04
  0.71545176E-06 -0.50699623E-07  0.30669160E-05 -0.57859017E-06 -0.24686212E-06
  0.49180615E-06 -0.18808626E-06 -0.53932117E-07 -0.21032438E-05 -0.68018632E-07
  0.38555217E-06 -0.51390597E-06 -0.59227768E-06  0.12120178E-06  0.47902178E-06
 -0.13070436E-05 -0.64352780E-07 -0.23896034E-05 -0.26363505E-07  0.61755127E-06
 -0.18939747E-05  0.14767883E-05 -0.16982523E-05 -0.43563242E-06  0.78969306E-06
  0.52841335E-05  0.16105846E-04 -0.10094135E-04 -0.11123042E-05 -0.18492699E-04
  0.11523908E-04 -0.81302647E-05  0.23649941E-05  0.13764433E-04 -0.51501691E-06
 -0.45906761E-06  0.11204489E-05  0.54230041E-06  0.35980938E-05 -0.29368334E-06
  0.10205076E-05  0.60422006E-06 -0.21245140E-05  0.61019565E-05  0.19028828E-04
 -0.79224146E-05 -0.21621270E-04  0.14559916E-04  0.41987892E-05  0.25121420E-04
  0.14763164E-04 -0.13969813E-04  0.11076717E-05 -0.83043692E-06 -0.16315738E-05
 -0.10630546E-05 -0.94431344E-06  0.12724401E-05 -0.11581721E-06 -0.72993911E-06
 -0.19344103E-05 -0.10291657E-04  0.22183437E-04 -0.27874824E-04  0.21586249E-04
 -0.63687258E-04  0.78478020E-05 -0.25342715E-05 -0.43281456E-05  0.70412455E-06
  0.91902352E-06 -0.10555267E-05 -0.13819285E-05  0.11427066E-05 -0.17555547E-05
 -0.20327214E-06 -0.11675596E-05  0.90980837E-06  0.15659510E-06 -0.55838685E-05
  0.89203719E-05 -0.68717183E-05 -0.15514415E-05  0.11871557E-04  0.10881539E-04
  0.36440812E-05 -0.73594963E-05  0.60321720E-06 -0.32968950E-06 -0.59756824E-06
  0.33252093E-06  0.56643021E-08  0.63717116E-06 -0.43756689E-06 -0.17340279E-06
 -0.37850033E-06  0.51073198E-06 -0.83470590E-07 -0.41076912E-06 -0.55602390E-06
 -0.80519394E-06  0.99427513E-06  0.72016902E-06  0.72023679E-07  0.43866788E-06
 -0.47476809E-07 -0.16217953E-07  0.17912353E-05 -0.51777775E-06  0.37108628E-06
  0.31444390E-06  0.37591702E-06 -0.32257496E-06 -0.10168163E-06  0.29094341E-06
  0.45712150E-06  0.42036624E-05 -0.71758200E-06  0.61450573E-06  0.87621113E-06
 -0.56882832E-06  0.23045855E-05 -0.52712666E-06 -0.42349815E-06 -0.27289472E-05
  0.33657046E-06 -0.24938899E-05 -0.13057969E-05  0.50755022E-05 -0.21435638E-05
 -0.21481819E-05 -0.98098705E-06 -0.65061583E-07  0.21492916E-04 -0.16442231E-04
  0.44466975E-05  0.10160638E-04  0.45621226E-04 -0.47658669E-04 -0.40574800E-04
  0.10009616E-05  0.44644846E-04  0.25622487E-05  0.10177046E-05  0.59289737E-06
  0.68354157E-06 -0.12201574E-05  0.17667884E-05  0.20224740E-05  0.73852678E-06
  0.82096964E-06 -0.26767871E-04  0.12361728E-04  0.12472278E-04 -0.13034940E-04
  0.11142641E-05  0.23734071E-04 -0.12875424E-04  0.83429683E-05  0.15983610E-04

  0.49535544E-06 -0.19342383E-07  0.10433969E-05 -0.67320607E-06  0.96453774E-06
 -0.20348515E-05 -0.21322086E-06 -0.80089316E-06  0.73929444E-06  0.78599292E-06
  0.25208140E-05  0.24922820E-05  0.45120394E-06 -0.66127091E-06 -0.66226574E-06
  0.26085850E-07 -0.14000823E-06  0.99589030E-06  0.98292536E-05  0.17913256E-04
 -0.88606564E-05  0.14620464E-04 -0.24689607E-04  0.78003402E-05 -0.98051172E-05
 -0.16921922E-04 -0.13003244E-04 -0.88862636E-06 -0.50628575E-06 -0.81085170E-06
 -0.22454244E-06 -0.10346351E-05  0.42457621E-05  0.61932056E-06  0.22493677E-06
  0.79427995E-06 -0.57505139E-05  0.63008367E-05  0.21366861E-05  0.10612851E-04
 -0.71470203E-05  0.18251704E-05 -0.18364183E-05  0.77738586E-05 -0.84863846E-05
 -0.25074728E-07  0.32477086E-06 -0.16981221E-05  0.40994861E-06  0.45429916E-06
 -0.18970419E-05  0.59396974E-06 -0.19117668E-06  0.19916781E-06 -0.13906701E-05
 -0.19970694E-05  0.27874542E-05  0.94712016E-06  0.29887423E-05 -0.41520384E-05
 -0.92244207E-06  0.35440868E-05  0.32977946E-05  0.29130830E-05  0.71545176E-06
  0.17004739E-04 -0.17717844E-05 -0.12470324E-05  0.36229796E-05 -0.52200200E-06
 -0.13177485E-05 -0.85211550E-06  0.15865081E-06  0.89246127E-06 -0.11003864E-05
  0.34392530E-06  0.62630094E-06 -0.49617420E-06  0.42908088E-06 -0.60280537E-06
  0.14269790E-05  0.45889733E-06 -0.29411180E-05 -0.53295681E-06  0.83039541E-06
 -0.24206214E-05  0.38173562E-06  0.30111431E-06  0.88734155E-07  0.85408322E-06
 -0.14409803E-04  0.63911540E-05 -0.81403291E-05  0.12254101E-05 -0.48942679E-05
  0.18463576E-04 -0.15703308E-04 -0.57679162E-05  0.12938776E-04 -0.12092658E-06
 -0.71541839E-07  0.30140524E-06 -0.34843267E-06 -0.30064884E-06 -0.88523919E-06
  0.13967843E-06  0.42019339E-06  0.30075866E-06  0.77411614E-05  0.70309969E-05
  0.15701014E-05 -0.53534708E-05  0.11207644E-04  0.10964377E-04  0.27561951E-05
  0.52343962E-05 -0.11052300E-04  0.21942162E-06  0.14974910E-06  0.13585947E-07
 -0.47419276E-06  0.24476533E-07  0.26337773E-06  0.16183481E-06 -0.81262861E-06
  0.48310876E-06  0.11505520E-04 -0.73936515E-05 -0.18172894E-04  0.15650006E-04
 -0.16513242E-04  0.14937046E-04 -0.21360764E-05 -0.11971797E-04  0.29183376E-06
  0.10127390E-07 -0.11179944E-05  0.15969453E-05 -0.43859216E-06 -0.38561014E-06
  0.62167340E-06  0.44226835E-06  0.13569780E-05  0.15325992E-06 -0.35436619E-05
  0.17480270E-05 -0.15735835E-04 -0.11390414E-05 -0.54554269E-06 -0.15190674E-04
 -0.41807109E-05  0.16105745E-04  0.55485618E-06  0.73787556E-06  0.19779343E-06
  0.36001485E-06 -0.42687798E-07  0.11456969E-05 -0.18949155E-05  0.19756424E-07
  0.26362718E-06 -0.33614476E-06 -0.48770773E-06 -0.73045214E-06  0.32047411E-06
  0.39356458E-07 -0.12693653E-05  0.75099473E-06  0.28862395E-06 -0.72095384E-06
 -0.81905703E-06 -0.29439518E-06  0.18418565E-06  0.17746953E-05 -0.51160054E-06
  0.84621145E-06  0.10181310E-05  0.45158224E-06 -0.12379996E-06  0.55212057E-06
  0.21357826E-06  0.12074363E-05  0.16176700E-06  0.15446097E-05 -0.82437689E-06
 -0.30886927E-06 -0.27592616E-06  0.13549348E-05 -0.82852663E-06 -0.27496706E-06
  0.41298365E-07  0.11441809E-05  0.13328109E-06 -0.40004369E-06  0.40120468E-06
 -0.16520259E-05 -0.29301722E-06 -0.78810472E-06  0.89123533E-05 -0.79739763E-05
 -0.79363834E-05  0.32996175E-05  0.11133941E-04 -0.96042714E-04 -0.12353780E-04
 -0.78052324E-05 -0.11852413E-04  0.72500911E-06  0.17704668E-05 -0.84032803E-06
  0.95129900E-06 -0.92684118E-06 -0.13391582E-05 -0.16593533E-06 -0.72132113E-06
 -0.87915667E-06  0.33539255E-05  0.65432406E-05 -0.13174933E-04 -0.23973951E-04
 -0.22270086E-06  0.15943532E-04 -0.94614964E-05  0.62079984E-06  0.93761919E-06

  0.78847386E-06  0.12365011E-05  0.11205751E-05  0.49175299E-07 -0.11362686E-05
  0.22698220E-05  0.29124827E-06 -0.34393063E-06 -0.64280421E-06 -0.16412452E-05
  0.18799882E-05 -0.19113360E-05 -0.93116377E-06  0.28877673E-05  0.31904209E-06
  0.70171791E-06 -0.11283469E-05 -0.21628217E-06  0.20196082E-04  0.47828019E-04
  0.62604389E-05 -0.20326036E-04  0.14317767E-04 -0.72794041E-05 -0.17915487E-04
 -0.20732394E-04 -0.29953821E-04  0.12298408E-05  0.11329101E-06 -0.12887357E-05
 -0.16294950E-06  0.47578292E-06  0.85669760E-06 -0.11188857E-06 -0.20265134E-06
  0.11931796E-06 -0.38890251E-05 -0.32359774E-05 -0.63208946E-05  0.65805093E-05
  0.42106068E-04 -0.61489799E-05  0.95378553E-05 -0.18813190E-05  0.23840219E-04
 -0.32582564E-06  0.14474965E-05 -0.16664562E-05  0.29539356E-05  0.69804582E-06
  0.17354407E-05  0.71884321E-06  0.14678613E-05  0.13653582E-06 -0.73041697E-06
  0.22868487E-05 -0.27406387E-05 -0.24731639E-05 -0.97763281E-06  0.26745068E-05
 -0.85474292E-06 -0.48064192E-05 -0.15939765E-05 -0.70693445E-06 -0.50699623E-07
 -0.17717844E-05  0.31020264E-04 -0.99475222E-05 -0.98846324E-05  0.41400136E-06
  0.23395568E-05  0.57771339E-06  0.63680529E-06  0.11774115E-05  0.10287887E-05
 -0.24662539E-05  0.20313856E-05  0.12122441E-05  0.67458870E-06 -0.59388962E-06
  0.19961733E-06 -0.91413299E-06 -0.36910860E-06 -0.16411066E-05 -0.12780191E-05
  0.15001036E-05  0.25623808E-05  0.35268615E-06 -0.52755725E-06 -0.58751073E-06
 -0.14350451E-05  0.11767283E-05 -0.52827964E-05 -0.39061747E-04  0.33960219E-04
 -0.35074276E-05 -0.13744217E-04  0.78712945E-05 -0.76990879E-05 -0.36253408E-06
 -0.95700320E-06  0.69167108E-07  0.43374033E-06  0.24496033E-05 -0.29863548E-06
  0.10051784E-05  0.84719081E-06  0.18882937E-05  0.31345236E-05  0.60200762E-05
 -0.11413604E-04  0.62943765E-04 -0.16142488E-04  0.94654912E-05 -0.14590250E-05
  0.13785685E-04 -0.61257540E-05 -0.42273479E-06 -0.15547503E-05  0.17695845E-05
  0.59941719E-06  0.74806000E-06  0.78970603E-06  0.43037679E-06 -0.16629798E-05
 -0.84836318E-06  0.24211475E-04 -0.24774738E-04  0.18864065E-04  0.32330897E-04
 -0.98824386E-05  0.87531725E-05 -0.30265920E-04 -0.15648833E-04 -0.11581000E-04
 -0.44772771E-07 -0.26240045E-06 -0.20825721E-06  0.63458981E-06  0.25077435E-05
 -0.23478631E-06 -0.71385184E-06 -0.25882976E-06  0.99118991E-06  0.14543465E-04
 -0.16677305E-04  0.80939444E-05 -0.23163867E-04  0.11224012E-04  0.47591874E-05
  0.62716439E-05  0.19670822E-05  0.12360111E-04 -0.19198026E-07  0.51005608E-07
 -0.11948173E-05  0.63712843E-06  0.36869239E-06  0.41392714E-06 -0.12788474E-05
  0.13354260E-05 -0.53221718E-06 -0.20291572E-06  0.13035344E-05 -0.17269620E-05
  0.21517602E-05  0.44743139E-06  0.84664847E-06 -0.92262585E-06 -0.19527021E-06
 -0.17604307E-06 -0.23012263E-06  0.93250523E-06  0.93369285E-07 -0.46222944E-06
  0.12121787E-05  0.90666841E-06 -0.82028793E-06  0.13298922E-05 -0.28826045E-06
 -0.25806442E-05  0.40312454E-06 -0.53969770E-06  0.49765415E-06 -0.16871664E-06
  0.80699801E-06 -0.20984433E-06  0.12102093E-05  0.11123911E-05  0.27791118E-05
  0.30352135E-05 -0.82006946E-06 -0.12961399E-05  0.64512866E-06  0.51200132E-06
  0.86302673E-06  0.14090507E-05  0.53786926E-06 -0.19812552E-04  0.36287508E-04
  0.23828280E-04  0.23023273E-04 -0.22845278E-04  0.47693330E-04 -0.13757944E-05
 -0.50912885E-05 -0.20047254E-04 -0.31917709E-05 -0.77764264E-06 -0.73823499E-06
 -0.55375990E-05  0.29837283E-05  0.31711397E-05 -0.20790927E-06 -0.20678291E-05
  0.64897185E-06  0.92049834E-05 -0.54434942E-05 -0.82916323E-05 -0.43448237E-04
  0.13501757E-04  0.29061453E-04  0.13745962E-05 -0.16182502E-04 -0.32108111E-04

 -0.11323903E-05 -0.26472656E-05  0.13705049E-05 -0.30898885E-06  0.33016216E-05
 -0.98500780E-06  0.13429678E-05 -0.14280450E-05  0.38462489E-06 -0.86707247E-06
  0.38010337E-05  0.51259592E-06  0.96723630E-06 -0.25234889E-05  0.11378019E-05
 -0.18882724E-05  0.33707166E-06 -0.10591210E-06  0.61526273E-04  0.97547278E-05
  0.12611112E-05  0.60255936E-04 -0.10896142E-04 -0.99081254E-05 -0.28017018E-04
 -0.13116408E-04  0.14747114E-04  0.41263937E-06 -0.11007784E-05 -0.12774339E-05
  0.15042546E-05 -0.17199557E-05 -0.12497976E-05 -0.62909974E-06 -0.12433916E-05
 -0.25081175E-05  0.20391218E-04  0.15513744E-04 -0.13814005E-05  0.41275626E-04
 -0.47168625E-04  0.35909206E-05  0.17930240E-04  0.36215007E-04  0.19777183E-04
 -0.10538468E-05  0.57814284E-05  0.46176240E-06 -0.49733573E-06 -0.82475311E-05
  0.33997831E-05 -0.18044954E-05 -0.12206961E-05  0.71469175E-06  0.73901169E-06
 -0.87471017E-06 -0.13361054E-05  0.15142220E-05  0.15527677E-05  0.13696843E-05
  0.22771941E-05 -0.66441368E-06 -0.26323996E-05  0.47027772E-06  0.30669160E-05
 -0.12470324E-05 -0.99475222E-05  0.39973555E-04 -0.68418274E-05  0.23286392E-06
  0.77697215E-06  0.19244853E-05 -0.98102679E-06 -0.65582748E-06  0.54766035E-07
  0.24126935E-05 -0.56112514E-05  0.10144439E-05 -0.79502449E-06  0.64558889E-06
 -0.98351526E-06 -0.17958283E-05  0.63349374E-06  0.62889248E-06  0.15515608E-05
 -0.43525737E-05  0.23193712E-05 -0.88761506E-06 -0.99890943E-06  0.12340752E-05
 -0.63694609E-05  0.42827753E-04 -0.44088912E-05  0.90704705E-05 -0.41954465E-05
  0.22977946E-04  0.82829380E-06 -0.40579783E-06 -0.77831968E-05  0.14166650E-06
 -0.20451595E-05  0.19005987E-07  0.20194378E-05 -0.14446641E-05  0.11414948E-06
  0.14329282E-06  0.99501590E-06 -0.27348154E-05  0.33369722E-04 -0.19393871E-04
 -0.97806307E-05 -0.41200955E-04  0.33814823E-04  0.10734597E-04  0.24834880E-05
 -0.30434481E-05 -0.13907627E-04 -0.86894696E-06 -0.15552051E-05 -0.24732375E-05
  0.18560103E-05 -0.15051281E-05  0.32631903E-06  0.76821661E-06  0.88751309E-06
  0.29438722E-05  0.49112683E-05 -0.96713459E-05  0.28401435E-04 -0.95098838E-05
  0.10066820E-04 -0.14550015E-04  0.18246523E-04  0.21942442E-04  0.29572421E-04
  0.14309639E-05  0.70931398E-06 -0.56093615E-06  0.77576771E-06 -0.16440878E-05
  0.54545751E-06 -0.52907549E-06  0.32919067E-06 -0.62964995E-06 -0.68774750E-06
  0.13968547E-04  0.14412851E-05  0.58494666E-05  0.28627529E-04 -0.34293470E-05
  0.56474511E-06 -0.61596006E-05  0.56687498E-05 -0.32285364E-06  0.16300359E-05
  0.14296877E-05 -0.20233906E-06 -0.15274954E-05  0.21001621E-05  0.12439170E-05
 -0.56127025E-06  0.11086162E-05 -0.13367285E-06 -0.32388876E-05  0.94374219E-06
  0.27247289E-06  0.89720424E-06 -0.29777347E-06  0.11020161E-06  0.20943618E-05
 -0.54199059E-06  0.39451089E-06 -0.19253523E-05 -0.58942872E-06  0.70091953E-06
 -0.25959728E-05  0.15985371E-05  0.14718618E-06 -0.75598998E-06 -0.66891307E-06
  0.63374001E-07  0.36128933E-05 -0.17022198E-05 -0.15692030E-06  0.92060199E-05
 -0.12482772E-05  0.12366599E-05 -0.44608512E-06  0.94262400E-06 -0.82130524E-06
 -0.17106795E-05 -0.15332484E-05 -0.65569767E-07  0.62888013E-06 -0.39634890E-06
 -0.19096252E-06 -0.24078534E-06  0.54354947E-06  0.39051099E-05  0.88547007E-05
  0.13380360E-04 -0.12840717E-04  0.92750333E-05 -0.16835768E-04  0.39663730E-06
 -0.73734623E-06  0.21912980E-04  0.10171516E-05  0.19270465E-05  0.12506804E-05
  0.22212035E-05 -0.17449132E-06  0.29733484E-05  0.34128614E-05  0.77965687E-06
  0.24484418E-05 -0.14835293E-05 -0.25750773E-06 -0.31084528E-04  0.26487727E-04
 -0.34943500E-04  0.26629556E-05 -0.10246041E-04  0.27706784E-04  0.54170672E-05

  0.39227475E-06  0.84855272E-06 -0.31551627E-05  0.35792011E-06  0.14233944E-05
 -0.12340252E-05  0.12022487E-06  0.46479737E-06  0.17825613E-05 -0.60949268E-07
  0.34645340E-05  0.51463374E-05  0.13004578E-05  0.10740956E-05 -0.31190172E-05
  0.73179760E-06  0.62541194E-06  0.34032525E-06  0.53133991E-05  0.21370582E-04
  0.30210482E-04  0.54731815E-04 -0.45627599E-04 -0.98910351E-06 -0.21455373E-04
 -0.58537390E-06  0.48289630E-05 -0.43416055E-06  0.49651936E-06  0.39389837E-05
 -0.60870379E-06 -0.13053690E-05  0.53366064E-05 -0.84439461E-07  0.38516402E-07
  0.12874736E-05 -0.12613363E-04  0.29281095E-05 -0.72578335E-05 -0.71001998E-05
 -0.12466191E-04  0.19088388E-04 -0.11774425E-04 -0.76362601E-07 -0.12734203E-04
  0.11879106E-05 -0.12152508E-05  0.76835191E-06  0.15933763E-05  0.25379441E-05
 -0.30001384E-05  0.67421725E-06  0.23767819E-06 -0.18464674E-05 -0.21692719E-05
 -0.47772494E-06  0.65317563E-05  0.13909820E-05  0.26735504E-05 -0.28479894E-05
 -0.23119733E-05  0.47503090E-05  0.56295789E-05 -0.35008280E-06 -0.57859017E-06
  0.36229796E-05 -0.98846324E-05 -0.68418274E-05  0.31473843E-04  0.20723359E-06
  0.25396206E-05  0.21316675E-06  0.19660969E-06 -0.83834216E-06  0.13446027E-06
  0.84414023E-06  0.13627683E-05 -0.21557969E-05  0.38639735E-07 -0.12412448E-05
  0.91172785E-06  0.33205892E-05 -0.18118306E-05 -0.21964809E-05  0.10938267E-05
  0.20430206E-06 -0.62997823E-05 -0.14791273E-06 -0.10922207E-05 -0.32055661E-06
 -0.52509288E-05  0.88149598E-05 -0.42741482E-04  0.25069006E-04  0.34782951E-05
 -0.80312889E-04 -0.17320322E-05 -0.37946717E-05  0.11733674E-04  0.13043414E-05
  0.14392852E-06 -0.15321182E-06  0.14272683E-06  0.31666890E-06  0.13424868E-05
 -0.46204076E-06  0.39133186E-06 -0.15617581E-05 -0.18824407E-04 -0.64842414E-05
  0.48760850E-05  0.30513450E-04 -0.86909805E-05 -0.16601273E-04  0.28981959E-05
  0.12951080E-04 -0.23663167E-05  0.98837311E-07 -0.10358489E-05 -0.26120289E-05
 -0.73005699E-06  0.21885960E-05 -0.21271202E-07  0.28118269E-06  0.68728444E-06
  0.42281283E-06 -0.29072780E-04  0.16786627E-04 -0.17995009E-04  0.14950062E-04
 -0.58069024E-05  0.15417687E-04 -0.14088702E-04 -0.48135923E-05  0.21128752E-04
 -0.65693571E-06 -0.19589521E-06  0.62895041E-06  0.91834361E-06 -0.85150798E-06
  0.26777058E-06  0.12824233E-05 -0.14675001E-05 -0.14378267E-05  0.46799460E-05
  0.98496958E-05  0.24124688E-05  0.42593133E-05  0.19924645E-05  0.70011742E-05
  0.13465473E-05  0.14633919E-04  0.17436371E-04  0.90598477E-06 -0.26321319E-06
 -0.19940240E-05  0.65112736E-06  0.99906153E-06  0.48985720E-06 -0.25818984E-06
  0.89757905E-06 -0.28405068E-06  0.43245406E-06  0.38179214E-06  0.25829516E-05
  0.50066456E-06 -0.12702334E-06 -0.20942945E-05  0.10974212E-05 -0.10355369E-05
 -0.38908915E-06 -0.10655577E-05  0.92461589E-07  0.43785306E-06  0.12162080E-05
  0.19824580E-05 -0.10733965E-05  0.14634590E-06 -0.42061884E-06  0.61588510E-06
  0.12524758E-06 -0.16179724E-05  0.21519192E-05  0.18310231E-05 -0.95622497E-06
 -0.37240877E-05 -0.28411880E-06  0.44325500E-06 -0.87526725E-06  0.73344688E-06
  0.19407794E-05  0.73249183E-07  0.25897613E-08  0.15436470E-05  0.50743883E-06
  0.16220780E-06 -0.23077153E-05  0.12459748E-05  0.51930770E-05  0.15154858E-05
  0.27007228E-04  0.31637815E-04 -0.13518121E-06 -0.10888040E-03  0.14036614E-05
 -0.49116715E-05 -0.30082262E-04  0.14375663E-05 -0.90554271E-06  0.33274411E-06
  0.29961468E-05  0.18441896E-05 -0.61780017E-05  0.44770058E-07  0.25687324E-06
 -0.92578739E-06  0.73948246E-06  0.15406827E-05  0.37532037E-04  0.40151109E-04
 -0.18378635E-05 -0.14130448E-04  0.38789239E-05 -0.11520112E-04 -0.94874146E-05

  0.90125371E-06  0.29582868E-06 -0.27871161E-06 -0.18220103E-06 -0.17972877E-05
  0.50119295E-06 -0.44756782E-06 -0.23717558E-06 -0.45675851E-06 -0.20280676E-06
 -0.13809030E-05 -0.95993626E-06 -0.28391647E-06  0.60368301E-06 -0.27652925E-06
 -0.74342632E-07 -0.37230616E-06 -0.13775164E-05 -0.15118390E-04 -0.11124725E-04
  0.74871912E-05  0.29450035E-04  0.30775465E-05 -0.26525204E-04 -0.12962735E-04
  0.34368580E-05  0.46424716E-06  0.15436773E-05  0.69633525E-06 -0.26414416E-06
 -0.76507213E-06  0.12567446E-05  0.68726803E-07 -0.69711321E-06 -0.28771478E-06
 -0.59423352E-06 -0.13199786E-04 -0.10874283E-04 -0.66141343E-05  0.60637169E-05
  0.23190746E-04 -0.41873059E-05 -0.73806138E-05 -0.14921855E-05  0.71095609E-05
  0.12574911E-05 -0.89706772E-06  0.27116864E-06 -0.11988354E-05 -0.56830072E-06
  0.20521830E-06 -0.29224634E-06 -0.84248068E-07  0.55836602E-06  0.66755299E-07
  0.49687194E-06  0.83325671E-07  0.82161671E-06 -0.52156165E-07 -0.16795717E-05
  0.43847320E-06  0.42302560E-07  0.64993885E-07 -0.51538262E-06 -0.24686212E-06
 -0.52200200E-06  0.41400136E-06  0.23286392E-06  0.20723359E-06  0.13959196E-04
  0.51282050E-06  0.20404013E-05  0.42325095E-06  0.69233623E-06  0.38568578E-06
  0.68053594E-06 -0.11044736E-05 -0.10208503E-05  0.29997047E-07  0.87387636E-06
 -0.61854421E-06  0.32854763E-06  0.67853745E-06  0.10317897E-05 -0.34063277E-06
  0.86289615E-06  0.45620126E-07 -0.20361828E-06 -0.26949550E-06  0.69536873E-06
 -0.46267182E-06 -0.67987728E-05  0.19480059E-05  0.15572616E-05 -0.23780584E-05
 -0.57864992E-05 -0.34721672E-05  0.42772993E-05  0.26855095E-05  0.23538747E-06
  0.58148926E-06  0.82664148E-06  0.20290191E-05 -0.11017732E-05 -0.10476148E-05
 -0.79652029E-06 -0.62058139E-06 -0.74643670E-06 -0.26340377E-05  0.20552908E-05
  0.11531638E-04 -0.35235093E-04 -0.79641654E-05  0.24751512E-04 -0.15844255E-04
 -0.22671403E-04  0.18184394E-04  0.85809248E-06 -0.91464681E-06 -0.42209449E-06
  0.66330108E-06 -0.62414505E-07  0.41915201E-06 -0.54118369E-06  0.76156453E-06
  0.76283937E-06  0.93797830E-06  0.90473440E-05  0.79417119E-06 -0.16496090E-04
  0.57544443E-05 -0.74581932E-05  0.26925004E-05 -0.27032773E-05  0.35734527E-05
  0.57896240E-06 -0.67136970E-06 -0.11736820E-06  0.11135742E-06  0.13526318E-05
 -0.55470999E-07 -0.21474507E-06 -0.64737960E-06 -0.17169650E-06 -0.47384769E-05
 -0.11903938E-04  0.44646486E-05 -0.54003932E-05  0.12147402E-05  0.23347956E-05
 -0.29160245E-05 -0.77070526E-05 -0.12992376E-04 -0.10119920E-05  0.61460060E-06
 -0.45303624E-06 -0.44019414E-06 -0.72005064E-06  0.99021442E-06 -0.12441938E-06
 -0.96618608E-07 -0.48714653E-06  0.32028055E-06  0.92799130E-06 -0.60929469E-06
 -0.13127458E-05  0.87556973E-06  0.14842461E-06 -0.66865240E-06 -0.50803911E-06
  0.92923949E-07 -0.35200338E-06 -0.34759299E-06  0.53089918E-07 -0.28833961E-06
 -0.59260375E-06 -0.34552553E-06 -0.74425015E-06  0.22694590E-06  0.24237591E-06
  0.19443832E-06 -0.24309710E-05  0.23696527E-06 -0.32867736E-06  0.11978323E-05
 -0.90451550E-07  0.27165299E-06 -0.12727973E-06 -0.10800608E-06  0.66340722E-06
 -0.67010740E-07  0.66528524E-06  0.11490573E-05 -0.24861410E-05  0.43238604E-07
 -0.45905016E-06  0.38355690E-06  0.14226463E-05 -0.48998630E-05  0.51891095E-05
  0.67037902E-06 -0.70177902E-05 -0.27981129E-04  0.50983729E-04 -0.45993224E-05
 -0.11533920E-04  0.66800685E-05  0.29495342E-06 -0.56741223E-06  0.24690174E-06
  0.23442515E-06  0.23089456E-05 -0.85166068E-06  0.31953669E-06 -0.52524937E-07
 -0.26570942E-06 -0.30042850E-05  0.15425693E-05  0.96571339E-05  0.10768284E-04
 -0.15936498E-04 -0.57460306E-05  0.44106674E-05 -0.20907419E-05  0.15558197E-04

 -0.46790674E-06  0.56287378E-06  0.80520019E-06 -0.63504389E-06  0.65291784E-06
  0.70667498E-06  0.59466523E-06 -0.96229414E-06  0.83340412E-06 -0.60862557E-06
  0.51289247E-06 -0.71112951E-06 -0.71470393E-06  0.71360148E-06 -0.49791690E-06
 -0.61275562E-06  0.81853051E-07  0.42031583E-06  0.14409623E-04  0.11299697E-04
  0.81166189E-05 -0.15747652E-04  0.13193553E-04  0.29479923E-05  0.17197527E-04
 -0.11708766E-04 -0.11372273E-04  0.11623938E-05  0.41824624E-06 -0.54670547E-06
 -0.95558554E-06  0.12755085E-06  0.14838894E-05 -0.56492467E-07 -0.78887533E-06
 -0.59994988E-06 -0.36606535E-05 -0.28563508E-05 -0.20086169E-04 -0.84073697E-05
  0.25593975E-05  0.18898395E-04 -0.23849522E-05  0.75017373E-05  0.15479240E-04
 -0.80012703E-06 -0.43534313E-07  0.15879277E-05  0.99449122E-06 -0.36311875E-06
  0.37363725E-06  0.73595635E-06  0.13466643E-06 -0.93697559E-07 -0.90045362E-06
  0.25587000E-05 -0.33887816E-05 -0.39268673E-05 -0.65973214E-06  0.39939232E-05
 -0.71475755E-06 -0.88675816E-06 -0.27590491E-05  0.33985213E-06  0.49180615E-06
 -0.13177485E-05  0.23395568E-05  0.77697215E-06  0.25396206E-05  0.51282050E-06
  0.13823663E-04  0.11798199E-05 -0.18037587E-07 -0.10783261E-05  0.58444778E-06
 -0.16694094E-07 -0.22626408E-06 -0.11506765E-05  0.36826785E-06 -0.15069200E-05
 -0.19378298E-06 -0.51921404E-06 -0.28111392E-06  0.12034622E-06  0.35016629E-06
  0.36892619E-06  0.17178247E-06  0.17131012E-06 -0.18913994E-05 -0.25257810E-06
 -0.10534929E-05  0.77960615E-05 -0.15925137E-04  0.26529949E-08  0.50963678E-06
 -0.12569695E-04  0.60743929E-06 -0.21458474E-04 -0.81075243E-05  0.53299535E-06
  0.85644928E-06  0.10058137E-05  0.10579708E-05  0.60849700E-06 -0.18574525E-06
 -0.52089684E-06  0.31983086E-08 -0.15340246E-06  0.96468223E-05  0.42216912E-06
 -0.33693850E-05  0.42420101E-05 -0.21982573E-05  0.80149901E-05 -0.18960560E-05
  0.10237486E-04  0.76831502E-05  0.12315454E-05 -0.81611220E-06 -0.43614669E-06
 -0.89588247E-06 -0.78298864E-06  0.19679328E-05 -0.61084355E-06  0.10359547E-05
  0.13088001E-05  0.51555615E-05  0.27995321E-04 -0.78140175E-05 -0.12684645E-04
  0.25622583E-04  0.24524989E-05 -0.17783629E-04 -0.79356283E-06  0.11720612E-04
  0.58375101E-06 -0.38622692E-07 -0.61694359E-06  0.12750788E-05  0.14344038E-06
 -0.18911343E-05 -0.45699050E-06 -0.46995099E-06  0.26942372E-06  0.51392652E-05
  0.95618289E-05  0.11370061E-04 -0.85759827E-05 -0.94161353E-06  0.31606909E-04
  0.94762468E-05 -0.75296598E-05 -0.44472352E-05 -0.11970649E-05 -0.53046476E-07
  0.17062978E-05  0.75696104E-06 -0.41615300E-06  0.11924957E-05 -0.65839957E-06
 -0.76455971E-08 -0.92018451E-06  0.24809983E-06 -0.30927526E-06 -0.81074764E-06
 -0.10761844E-06  0.91224773E-06 -0.87873490E-06 -0.33718508E-06 -0.13435779E-05
  0.11449548E-05 -0.47509715E-06  0.87062622E-06 -0.98633582E-06  0.15156829E-05
 -0.11473280E-05 -0.76279463E-06 -0.63373796E-06 -0.67072001E-06 -0.53342583E-06
 -0.44614588E-06  0.15525276E-06 -0.59408719E-06  0.31337092E-06  0.16524332E-06
  0.78041428E-06  0.17325829E-06 -0.11054280E-05  0.34295696E-08  0.35883944E-07
  0.17180937E-05  0.12761868E-05  0.10032449E-05 -0.13084177E-07 -0.22709692E-05
  0.11798750E-06 -0.63296407E-06  0.26045370E-06 -0.16496276E-05  0.17165915E-04
  0.25107311E-04  0.17076704E-04 -0.10205012E-04 -0.31395440E-04 -0.76157191E-05
 -0.22674963E-05  0.42672733E-05  0.56313122E-08 -0.42362822E-06  0.82224545E-06
 -0.18294731E-05  0.50682356E-06  0.22562819E-06  0.11167463E-05 -0.17360016E-05
  0.75294384E-06  0.11139914E-04  0.94412656E-05 -0.26802316E-04  0.12024744E-04
  0.11497987E-05 -0.16883216E-04  0.19185470E-06 -0.13469389E-05  0.52272519E-05

  0.38457393E-07  0.11612429E-06 -0.48448163E-06  0.23392361E-07 -0.13367020E-05
  0.13335580E-05 -0.58349623E-06 -0.11840010E-05 -0.15023276E-06 -0.52478616E-06
  0.20507440E-05 -0.11458853E-05 -0.95259383E-06  0.20511190E-06 -0.16171486E-07
 -0.16219534E-05 -0.44158253E-06  0.56217617E-06  0.23991431E-04  0.93779633E-05
  0.42709013E-05  0.17166437E-05  0.13460961E-04  0.20139703E-04 -0.43060342E-05
 -0.11438337E-04 -0.21521484E-04  0.17020463E-06 -0.12449267E-05  0.65731320E-07
 -0.40108165E-06 -0.15071940E-05  0.26323976E-05 -0.20403289E-06  0.45388138E-06
 -0.23785377E-05  0.43060222E-05 -0.75927199E-06 -0.14210754E-04  0.43450975E-05
 -0.49417253E-06 -0.63604888E-05 -0.39191488E-05  0.57580070E-05  0.10199992E-04
 -0.24420764E-07  0.11352035E-07  0.22014260E-06  0.98141245E-07  0.11117829E-05
 -0.16701998E-05  0.24363030E-06 -0.39746920E-06 -0.90070298E-06  0.33731593E-06
 -0.10979614E-06 -0.99961947E-06 -0.12490651E-05 -0.23196037E-05  0.69843617E-05
 -0.59876427E-07 -0.27010866E-05 -0.10605154E-06  0.53164141E-07 -0.18808626E-06
 -0.85211550E-06  0.57771339E-06  0.19244853E-05  0.21316675E-06  0.20404013E-05
  0.11798199E-05  0.18219283E-04  0.65867378E-06  0.35848811E-06 -0.37950026E-07
  0.11175035E-05  0.82582599E-06 -0.99072632E-06  0.33999762E-06 -0.46029353E-06
 -0.19618041E-05 -0.21892811E-06  0.13069382E-05  0.22541705E-05  0.12080089E-06
 -0.24019478E-06  0.11560289E-05  0.41412723E-06  0.61628362E-06  0.22358283E-06
 -0.10987444E-05 -0.11286990E-04  0.33654821E-05 -0.13868718E-05 -0.17170642E-05
  0.11695522E-04  0.16451977E-06 -0.39283178E-05 -0.40021664E-05  0.16252517E-06
  0.24366648E-06 -0.49612721E-06  0.61311881E-06 -0.21257536E-05  0.26144598E-06
 -0.36553789E-06 -0.99667305E-06  0.13813500E-05 -0.35187312E-06 -0.12876905E-04
  0.49976685E-05 -0.11553413E-04 -0.96006597E-05  0.20764792E-04  0.25637005E-05
 -0.12645479E-04  0.12411074E-04  0.49793200E-06 -0.17419225E-05  0.11224638E-05
  0.75977916E-06 -0.25793350E-06  0.34144347E-06 -0.29636190E-06  0.19171498E-05
  0.45246296E-06 -0.85229145E-05  0.21056630E-04  0.24720326E-04  0.22720584E-05
  0.21273211E-04 -0.30994879E-04 -0.10710958E-04 -0.96995006E-05  0.50844827E-05
  0.21374249E-07 -0.15711424E-05  0.10424063E-05 -0.21422815E-06  0.27390224E-06
 -0.14371701E-05 -0.38380675E-06  0.16169062E-06  0.54121560E-06 -0.17886484E-05
 -0.88535708E-05  0.19044848E-05  0.12998843E-05 -0.72827820E-06 -0.12815657E-04
 -0.21465546E-05 -0.19016310E-05 -0.13276215E-04 -0.75054491E-06  0.13705616E-05
 -0.20068638E-06 -0.21881279E-06  0.13480105E-06 -0.90205926E-07 -0.16027180E-07
  0.56436220E-06 -0.14896184E-05 -0.58988770E-06 -0.16595964E-06  0.78747358E-06
 -0.19838416E-07  0.12315971E-06 -0.11459206E-05 -0.50438142E-07  0.43895300E-06
  0.86040188E-08 -0.13715688E-06 -0.18678531E-06  0.51178000E-07  0.26351125E-06
 -0.42291854E-06  0.96025552E-06  0.23337301E-06 -0.50813985E-06 -0.10231797E-05
  0.21141326E-06  0.33789012E-06  0.65817666E-07 -0.13927242E-06  0.14656374E-05
 -0.11968629E-05 -0.18074519E-06  0.65587995E-06  0.95949228E-06  0.32748101E-06
  0.13765297E-05 -0.34852662E-06  0.60976209E-06 -0.39172591E-06  0.46510847E-07
  0.22395078E-06  0.40108254E-06  0.63792755E-06  0.36586198E-05  0.20572063E-05
 -0.18787720E-05  0.91966270E-06 -0.15425135E-04  0.74775753E-04 -0.12666188E-04
 -0.23526508E-04  0.44513453E-04  0.45528346E-06 -0.74128206E-06  0.13759585E-06
  0.34672434E-08  0.99778768E-06 -0.16086780E-06  0.48077697E-06 -0.10331008E-06
  0.30281270E-06  0.10905232E-04 -0.17986999E-05 -0.13330583E-05  0.12330557E-04
 -0.16373694E-04  0.89807273E-05  0.18597315E-04 -0.10143651E-04  0.65512327E-05

  0.91982632E-06  0.12894947E-05  0.84879680E-06  0.15676546E-05 -0.26123278E-05
  0.13628001E-05  0.40268670E-07 -0.59468952E-06  0.94329108E-07  0.14723807E-05
  0.10392434E-05 -0.65655169E-07 -0.90544900E-07  0.80886047E-06  0.13234619E-05
 -0.20724083E-07  0.90765038E-07  0.99033253E-07  0.13924383E-04  0.22741646E-04
 -0.31117135E-05 -0.42655099E-04  0.21712225E-04  0.43453561E-05 -0.68545090E-05
 -0.14185323E-04 -0.66036370E-05 -0.77824224E-06  0.40464933E-06  0.25406580E-05
  0.17928680E-05 -0.10477641E-05 -0.22935382E-06  0.27720906E-05  0.94698014E-06
  0.11639457E-05 -0.42302357E-05 -0.33178783E-05 -0.57605246E-05 -0.69681549E-05
  0.21286973E-05  0.21830215E-04 -0.78323368E-05 -0.15087278E-06  0.31053354E-05
 -0.20406420E-05  0.64902606E-06 -0.22761818E-05 -0.16883898E-05  0.29807243E-05
 -0.73700481E-06  0.11102982E-05  0.19235604E-05 -0.22420873E-06  0.31927063E-06
  0.28953744E-05  0.12344696E-05  0.64659117E-06 -0.31791734E-05 -0.39178579E-06
 -0.19510911E-06 -0.42532486E-06  0.44462537E-06 -0.92195674E-06 -0.53932117E-07
  0.15865081E-06  0.63680529E-06 -0.98102679E-06  0.19660969E-06  0.42325095E-06
 -0.18037587E-07  0.65867378E-06  0.25591647E-04  0.14969697E-05  0.14497446E-05
 -0.29353113E-06 -0.11768056E-05 -0.36790302E-07  0.83912073E-06 -0.71110746E-06
  0.47519894E-06 -0.73746134E-06  0.96385930E-06  0.22595648E-05 -0.68600560E-06
  0.13294807E-05 -0.64996431E-06 -0.16784959E-05 -0.76970136E-06 -0.55502989E-06
 -0.25795475E-05 -0.93676188E-05  0.11578836E-04 -0.20155933E-04  0.85031193E-06
  0.23565747E-04  0.77696251E-05 -0.11075212E-04 -0.19166950E-05 -0.29069786E-05
 -0.39626120E-06 -0.57345991E-06  0.24885339E-05 -0.35086013E-06  0.19900719E-06
  0.36006380E-06  0.19490638E-05 -0.19489220E-06  0.11714256E-04 -0.10494343E-04
 -0.34727112E-05  0.30032413E-04 -0.24562999E-04  0.26571611E-04  0.84454456E-05
  0.62452751E-05 -0.15363683E-04 -0.12517152E-05  0.33600740E-06  0.55895616E-06
 -0.21215526E-05  0.63966694E-06  0.19648378E-06  0.10121308E-05 -0.11913115E-05
  0.75560756E-06 -0.65619684E-05 -0.36905208E-05  0.12065734E-04  0.12116783E-04
 -0.30829282E-04  0.10677559E-04  0.13805815E-04 -0.28899679E-04  0.51713054E-05
 -0.34811994E-05  0.10973448E-05  0.65690420E-06  0.19660940E-05 -0.13031215E-06
 -0.51605677E-06 -0.19935978E-05  0.11975627E-05 -0.22790281E-06 -0.19809154E-06
  0.44156194E-05 -0.85124835E-05  0.67613734E-05  0.65573935E-05 -0.68597704E-05
  0.57494372E-05 -0.24595234E-06  0.85461805E-06  0.20529427E-06  0.13249320E-06
 -0.17487493E-05  0.62392474E-06 -0.12045788E-05  0.15785561E-05 -0.44519258E-06
 -0.58587185E-07 -0.81627461E-06  0.59707125E-06 -0.50813600E-06  0.40241727E-06
 -0.11050265E-05  0.11483702E-05 -0.70504064E-06 -0.13652049E-05  0.20155404E-06
  0.60864217E-06  0.72054021E-06  0.18450789E-06  0.11322705E-06  0.30660876E-05
  0.18771844E-06 -0.42196154E-06  0.33511394E-06  0.89158110E-06  0.33562967E-06
  0.89713720E-06 -0.27226022E-06 -0.50455224E-06 -0.62678909E-06 -0.92773437E-06
 -0.62729665E-06 -0.10818297E-05  0.21409820E-06 -0.65825566E-06  0.55047286E-06
 -0.82809843E-06 -0.29589367E-05 -0.10651738E-05 -0.31451739E-06 -0.16256101E-05
 -0.27009290E-06 -0.92120887E-06 -0.72667626E-06  0.48002953E-05 -0.31101606E-04
 -0.27552075E-04  0.33211027E-04 -0.13867812E-04  0.58328156E-07  0.14440812E-05
 -0.18508040E-04 -0.13305790E-04 -0.11427587E-06 -0.26249991E-06 -0.97898972E-06
  0.45739184E-06 -0.41630133E-06 -0.69506681E-06 -0.86378309E-06 -0.90433793E-07
 -0.57976421E-06  0.29249397E-05 -0.12523753E-04  0.27793401E-04  0.45407730E-04
 -0.12707445E-04 -0.20605282E-04 -0.30588713E-05 -0.50479284E-05  0.33027829E-05

 -0.42044243E-06  0.83628001E-06  0.22473408E-05  0.96118526E-06  0.91134934E-06
 -0.89347150E-06 -0.59000194E-06  0.53740473E-06  0.13303657E-05 -0.18984599E-05
  0.10832361E-05 -0.26492195E-07 -0.16123847E-05  0.13554496E-06  0.30274984E-05
  0.82354288E-06 -0.80895365E-06  0.12706907E-06 -0.97731537E-07  0.35915195E-04
 -0.16839158E-04  0.13246304E-04 -0.11689559E-04 -0.32318049E-04 -0.58141511E-04
 -0.14851081E-04  0.19050898E-04 -0.19601348E-05  0.47608305E-06 -0.58180244E-06
 -0.97196484E-06 -0.60074747E-05 -0.21110031E-05  0.21152777E-05 -0.39341113E-06
  0.61132465E-06 -0.53633647E-05 -0.11704354E-04 -0.79167013E-05 -0.16783730E-04
  0.49439883E-04 -0.73366966E-05 -0.19867839E-04 -0.79368900E-05 -0.29236399E-06
  0.11185044E-05  0.10772099E-05 -0.19412859E-06  0.12500880E-05  0.63652446E-06
 -0.61634784E-06  0.68496045E-07  0.65627932E-06  0.28146554E-05  0.39837226E-05
  0.15244945E-05 -0.17329942E-05  0.30154596E-06  0.10031580E-05 -0.61079522E-06
 -0.31199642E-05  0.13725489E-05  0.33689209E-05  0.51088312E-06 -0.21032438E-05
  0.89246127E-06  0.11774115E-05 -0.65582748E-06 -0.83834216E-06  0.69233623E-06
 -0.10783261E-05  0.35848811E-06  0.14969697E-05  0.45095533E-04  0.40583254E-06
 -0.49104432E-06  0.52580791E-05 -0.12950293E-05  0.72491618E-06  0.13630005E-09
 -0.13060934E-05 -0.20788451E-05 -0.64297958E-06  0.45467249E-05 -0.12573131E-05
 -0.58863433E-05  0.56680045E-05 -0.11545746E-05 -0.11763440E-05  0.41551286E-05
 -0.33714976E-05 -0.11411243E-04  0.35465080E-04 -0.30858014E-04  0.62947447E-05
  0.49766779E-04 -0.19520860E-04 -0.12469019E-04  0.53617477E-04  0.93125095E-06
 -0.49017517E-06  0.12890841E-05  0.13883651E-05  0.18085408E-05 -0.10096988E-05
  0.10129680E-05  0.60418850E-06 -0.31599345E-05  0.95768179E-05  0.52797640E-04
  0.30651587E-04 -0.48187210E-04  0.10247253E-03  0.24466978E-04 -0.48813071E-05
 -0.14288594E-05  0.20568411E-04  0.46530119E-06  0.84776207E-05 -0.23437580E-05
 -0.29666992E-06  0.50675412E-05 -0.80698759E-06 -0.53185949E-06 -0.93320816E-06
  0.79010141E-06  0.26275000E-04 -0.12923932E-06  0.78915294E-05 -0.60308025E-05
 -0.16625499E-04 -0.15881832E-04  0.30788068E-05  0.72329588E-05 -0.34423106E-05
 -0.77388864E-06 -0.63426008E-05  0.25760847E-05  0.76459578E-06  0.14317818E-05
  0.57760503E-06  0.23306920E-06 -0.82647790E-06  0.12018166E-05  0.15533354E-04
  0.19412397E-05  0.90989057E-05  0.97261291E-05 -0.51010860E-04 -0.11258110E-04
  0.12353764E-04  0.23272418E-05  0.23951929E-05 -0.95936481E-07  0.78848784E-06
 -0.71823839E-06 -0.19740488E-05  0.20095666E-05 -0.13011751E-05 -0.48871686E-06
 -0.51384917E-06 -0.85290881E-06 -0.30485926E-06 -0.88879387E-06 -0.21352536E-05
  0.14255397E-05 -0.11082090E-04  0.85142889E-06 -0.76355592E-06 -0.34235585E-06
 -0.81362695E-07 -0.22522861E-06  0.35964547E-05  0.12224307E-05  0.11231324E-05
 -0.41705297E-05  0.41171673E-06  0.31003262E-05  0.58839444E-06 -0.53350504E-06
 -0.10530549E-05  0.24628097E-05  0.14090544E-05  0.16572241E-06 -0.63298963E-07
 -0.15219784E-05 -0.99531572E-06  0.20021926E-05  0.97078874E-07 -0.19821644E-05
  0.79982717E-06  0.12853271E-05 -0.13806891E-05  0.16521127E-05 -0.33115351E-06
  0.34680216E-06 -0.11382810E-05 -0.17909233E-05  0.10006700E-04 -0.37994542E-04
  0.31008729E-04 -0.63371715E-05 -0.19570929E-05  0.20356425E-04 -0.20712120E-04
 -0.55486222E-04  0.33641545E-04 -0.17390934E-05  0.39753296E-06  0.31505462E-06
  0.10996884E-08  0.12952868E-05 -0.15004857E-06 -0.75233183E-06  0.70129671E-06
  0.33078339E-06 -0.44308021E-05 -0.30506540E-04  0.28684852E-04 -0.47303821E-04
  0.66453020E-05  0.59817934E-05  0.37012507E-05  0.14405100E-05  0.24039254E-05

 -0.39597237E-06  0.17492886E-06  0.88619218E-06  0.12354575E-06 -0.17757331E-05
  0.10518922E-05  0.14147276E-06  0.12259395E-05  0.49256789E-06 -0.41671601E-06
  0.14526338E-05  0.25957359E-05 -0.16191352E-07 -0.31776375E-06 -0.15072928E-06
 -0.24237131E-06  0.18468396E-05 -0.19926331E-05  0.12766677E-04  0.24965382E-04
 -0.34083301E-05 -0.39638255E-04 -0.22618419E-05  0.13756724E-04 -0.11628119E-04
 -0.17578717E-05 -0.12463555E-04  0.21641876E-05  0.17057212E-06  0.19199633E-05
  0.55589272E-06 -0.71894767E-06  0.24138608E-05  0.33341674E-07 -0.37950542E-06
  0.34548794E-05  0.31042992E-05 -0.49602820E-05 -0.32024880E-05  0.21525391E-04
 -0.63745165E-05  0.38677435E-04  0.27140442E-04  0.37066389E-04  0.22804539E-04
 -0.17437100E-05  0.14388017E-05 -0.15974195E-05  0.18094340E-05 -0.16690253E-05
  0.20274858E-05 -0.22898015E-06 -0.33633502E-06 -0.17512261E-05  0.33097906E-06
  0.10679240E-05  0.24286907E-05 -0.86994462E-06  0.22983249E-05 -0.36330167E-06
  0.84575552E-06 -0.54361606E-06  0.15386706E-05  0.21759775E-06 -0.68018632E-07
 -0.11003864E-05  0.10287887E-05  0.54766035E-07  0.13446027E-06  0.38568578E-06
  0.58444778E-06 -0.37950026E-07  0.14497446E-05  0.40583254E-06  0.37722874E-04
  0.54564936E-06 -0.77527929E-06 -0.85326688E-06  0.46671005E-06  0.76282278E-06
 -0.57587991E-06  0.60492643E-06  0.98812268E-06  0.12595557E-05 -0.26308928E-05
 -0.75911531E-08  0.43383345E-05 -0.13517151E-05 -0.59219371E-06  0.51765494E-05
 -0.49966746E-05  0.47632165E-04 -0.81863859E-05 -0.60658941E-05 -0.71617604E-05
  0.52234420E-04 -0.86092092E-05 -0.17062848E-05  0.16805910E-05  0.34114980E-06
 -0.72249589E-06 -0.21559048E-05  0.85524863E-06  0.16370607E-05 -0.10894240E-05
  0.41716861E-06  0.17221416E-05  0.36939772E-06 -0.36680512E-05  0.50412523E-07
 -0.16727540E-04  0.37377218E-05 -0.26508840E-05 -0.35317040E-04  0.18900850E-05
  0.54941078E-04 -0.22251219E-04 -0.41096571E-06 -0.12155697E-05 -0.90284166E-06
 -0.17638530E-05  0.30351806E-06  0.24298035E-05  0.17097510E-05 -0.13519459E-05
  0.14580127E-05  0.20802995E-04 -0.28188013E-04  0.31566541E-04 -0.34711062E-04
  0.18051355E-04 -0.57522679E-05  0.38983094E-05  0.16824720E-04  0.88718493E-05
  0.23441031E-07  0.12923279E-05 -0.57596099E-05 -0.19989347E-06  0.26981793E-06
  0.22040531E-05  0.51424743E-06  0.15820082E-05 -0.34121446E-05  0.37192219E-05
  0.80529442E-05 -0.18143712E-04  0.44919011E-05 -0.14337727E-05 -0.17373269E-04
 -0.30835885E-05  0.11561648E-06  0.81312489E-05 -0.21098974E-05 -0.19671598E-05
 -0.31974576E-06 -0.49761125E-06  0.13928389E-06  0.17450796E-05 -0.11674702E-05
  0.28305016E-05 -0.12044259E-05  0.92371818E-06 -0.57409538E-06 -0.12868253E-05
  0.93357298E-06 -0.38665620E-06 -0.37590338E-06  0.63829127E-06 -0.19167488E-05
  0.12433167E-05  0.30785870E-06 -0.81648092E-06 -0.35473563E-06  0.83693413E-06
  0.13000510E-05 -0.12121933E-05 -0.29841695E-06  0.42492181E-06  0.96085576E-06
 -0.10779418E-05 -0.18063410E-06  0.22171375E-05 -0.38711557E-07  0.10850710E-05
  0.10088103E-05 -0.51606411E-06 -0.10862090E-05  0.99148998E-06 -0.34464878E-05
  0.66377089E-06 -0.19520534E-05 -0.34209127E-05 -0.27933358E-06  0.21478691E-07
 -0.45475718E-06 -0.37934421E-05 -0.85947707E-06 -0.59339222E-05  0.20642560E-04
  0.39011191E-04 -0.10169558E-05 -0.91179536E-05 -0.24534763E-04 -0.20336269E-04
  0.20993852E-04 -0.22050666E-04 -0.81082462E-06  0.51193999E-07  0.96668702E-06
  0.65682240E-06 -0.10035148E-05  0.65444610E-06 -0.34939302E-06 -0.74566717E-06
 -0.11396180E-05  0.24977254E-04 -0.27408677E-05  0.11325990E-04 -0.21615516E-04
  0.61412497E-05  0.10139849E-05  0.13806397E-05 -0.11580095E-04 -0.48454782E-05

 -0.65074633E-06  0.19139524E-06  0.56504282E-06 -0.66128572E-06  0.36222009E-06
  0.98828511E-06  0.15132991E-05 -0.40815292E-06  0.11036389E-06  0.16666095E-05
  0.19448186E-05  0.14980250E-05  0.85953565E-06 -0.69997968E-06  0.14039447E-05
 -0.13899949E-05 -0.44693582E-06  0.15766140E-05  0.40479746E-04  0.33991311E-04
 -0.17471123E-05  0.46379580E-04 -0.35494387E-04  0.46680939E-05  0.17667598E-05
  0.10151658E-04  0.55946812E-05  0.81905748E-06 -0.21375746E-05  0.33384062E-06
 -0.27637130E-05  0.47722567E-06  0.19926635E-05 -0.23035290E-05 -0.50135632E-07
 -0.10113112E-05  0.41382941E-05  0.95004488E-06  0.74582310E-05 -0.22421642E-05
  0.83958494E-05  0.15780533E-04  0.77206896E-05  0.74710447E-05  0.12882605E-04
  0.10717419E-05  0.17995435E-06 -0.15308721E-05 -0.39000313E-05  0.13476027E-05
 -0.49603762E-07 -0.47392264E-06 -0.15098025E-05 -0.77105976E-06 -0.91755305E-06
 -0.99167743E-06  0.35075149E-07 -0.33814789E-05  0.18467570E-05  0.13150104E-05
  0.26880235E-05  0.16140044E-06 -0.23459235E-06 -0.47643059E-06  0.38555217E-06
  0.34392530E-06 -0.24662539E-05  0.24126935E-05  0.84414023E-06  0.68053594E-06
 -0.16694094E-07  0.11175035E-05 -0.29353113E-06 -0.49104432E-06  0.54564936E-06
  0.38596578E-04 -0.18325229E-04 -0.11924511E-04  0.54137913E-06  0.41436439E-05
 -0.77203737E-06 -0.29760202E-06  0.17770575E-05  0.29825608E-05 -0.36769733E-05
  0.25054314E-05  0.21036648E-05 -0.16451522E-05 -0.89344140E-06  0.57315627E-05
 -0.14059710E-04  0.19323093E-04  0.11062263E-04  0.57206668E-05  0.42430341E-05
  0.15805903E-04 -0.11899010E-04  0.34434138E-05  0.19215455E-04  0.89866956E-06
  0.58662292E-07 -0.70238949E-06 -0.17329042E-05  0.30223685E-05 -0.52776973E-06
 -0.87375383E-07 -0.69553478E-06 -0.95186825E-08  0.22688459E-04 -0.25587855E-04
 -0.18457668E-06  0.99096281E-04 -0.37174400E-04 -0.18174856E-04  0.83632969E-06
 -0.10620058E-04 -0.16290029E-04  0.16070616E-05 -0.32382461E-05 -0.20278605E-06
 -0.24945432E-05  0.26786547E-05  0.33161116E-05  0.12282924E-06 -0.57469967E-06
 -0.62621859E-06 -0.36148059E-04  0.79902825E-05  0.16102383E-05  0.38115831E-05
  0.14024259E-04 -0.52373585E-06 -0.18981111E-04 -0.21244265E-04  0.86646307E-05
 -0.11784988E-05  0.41385332E-06  0.13183816E-05 -0.15161740E-06 -0.89260755E-06
  0.22488720E-05 -0.26965313E-06  0.32737445E-06 -0.21047548E-05  0.25359682E-05
  0.70969665E-05  0.10993164E-04  0.26992428E-04  0.89377115E-05 -0.30959768E-04
 -0.10565111E-04  0.14545817E-04  0.46436914E-05  0.14474764E-05  0.15543887E-05
  0.11215877E-05 -0.58277119E-05  0.27346817E-05  0.91057984E-06 -0.21455931E-06
 -0.28059069E-05 -0.14415877E-05 -0.10921485E-05 -0.11688271E-05 -0.76969258E-06
 -0.22339303E-06  0.45604433E-05  0.34460382E-06  0.57413030E-06  0.10897906E-05
  0.17365984E-05 -0.21853342E-05  0.27307309E-06 -0.59084216E-08  0.30117643E-06
 -0.45986580E-07  0.14949698E-05  0.12418610E-06 -0.35676975E-06  0.63210413E-06
 -0.11444531E-05  0.12201671E-05 -0.15597281E-05 -0.29068033E-05  0.23087358E-05
  0.11237902E-05 -0.69485603E-06  0.33161715E-06  0.92807288E-06  0.97413622E-06
  0.28180194E-06 -0.88151898E-07  0.28854548E-06  0.12838821E-05  0.29150136E-06
  0.92255557E-06  0.30151105E-06  0.23627580E-05  0.60618378E-05  0.78331078E-05
  0.72882688E-05 -0.95466817E-05  0.72362964E-05  0.73992924E-04 -0.22401625E-04
 -0.33561840E-04  0.23552253E-04  0.14262533E-05  0.75385521E-06  0.43766209E-06
  0.12191945E-05 -0.45919883E-06  0.65691970E-06 -0.23352536E-07  0.33532092E-07
  0.83849110E-06  0.14957821E-04  0.13064851E-04 -0.14905598E-05  0.72060461E-04
 -0.24476531E-04 -0.61246623E-05 -0.50251188E-05  0.45376844E-05 -0.99274324E-06

 -0.13307524E-05 -0.26732355E-05 -0.62485957E-06  0.34297265E-06  0.49927150E-05
 -0.34191846E-05  0.12275566E-05  0.78863166E-06 -0.30971559E-06 -0.75512648E-06
 -0.22730714E-05 -0.23864514E-05  0.53396293E-06  0.39984782E-05 -0.43098863E-05
  0.26105017E-05  0.14762669E-05 -0.20101143E-05 -0.44559315E-04 -0.23276050E-05
 -0.10909085E-05  0.36889892E-04  0.43333665E-04 -0.26510665E-04  0.30351617E-04
 -0.20855854E-04 -0.21018203E-04 -0.21680239E-05 -0.98471048E-06 -0.14240747E-05
 -0.29089280E-06 -0.13808083E-05  0.26383972E-05  0.24028547E-05 -0.33145024E-06
  0.21736012E-05  0.13465161E-04  0.89617690E-05  0.19241264E-04  0.80950780E-05
  0.14356708E-05  0.28113661E-04  0.10292914E-04  0.37472160E-05  0.57151067E-05
  0.95449260E-07 -0.81559556E-06  0.24441762E-05  0.29366798E-05 -0.71168440E-05
  0.24317826E-05 -0.49317132E-06  0.13629358E-06  0.16145982E-05  0.33569514E-05
  0.38159455E-05 -0.28128499E-06  0.10460986E-06  0.58655844E-06  0.23232700E-05
 -0.37692404E-05  0.11479715E-05  0.28574775E-05  0.79918286E-06 -0.51390597E-06
  0.62630094E-06  0.20313856E-05 -0.56112514E-05  0.13627683E-05 -0.11044736E-05
 -0.22626408E-06  0.82582599E-06 -0.11768056E-05  0.52580791E-05 -0.77527929E-06
 -0.18325229E-04  0.67710056E-04 -0.11245210E-04  0.33933886E-05 -0.11125197E-05
  0.11865382E-05  0.14805247E-05  0.28772591E-05 -0.20320391E-05  0.61722251E-05
 -0.32124332E-05 -0.50515071E-05  0.14140620E-05  0.77641368E-06 -0.43499640E-05
 -0.83162396E-06 -0.46197276E-04 -0.41700503E-05  0.37839837E-04 -0.92987996E-04
 -0.56786289E-04 -0.43306763E-05  0.76755198E-06 -0.10612450E-04  0.70543639E-06
 -0.48927657E-05  0.62046850E-06  0.23836604E-05 -0.68361714E-05 -0.27286680E-06
  0.21279508E-05 -0.16979254E-05  0.48740728E-05 -0.46650840E-04  0.98056692E-04
 -0.70388624E-05 -0.66693010E-05  0.74343640E-04 -0.49461803E-04  0.28446216E-04
  0.13569618E-04 -0.12286542E-04  0.11896764E-05  0.79183184E-05  0.75285759E-06
  0.39409131E-05 -0.69498325E-05  0.75728996E-06 -0.92633114E-06  0.41804573E-06
  0.11621236E-05  0.87653656E-05  0.26583349E-04  0.34045109E-05 -0.33312977E-04
  0.76953778E-04  0.18448528E-04 -0.68876483E-05  0.31818546E-05 -0.21331703E-06
 -0.36281431E-06 -0.31017173E-05 -0.13951729E-06 -0.10199717E-05  0.47724234E-05
 -0.28856077E-05  0.13804295E-05 -0.22512856E-05  0.24848838E-05 -0.47590646E-05
 -0.20740766E-04  0.22542908E-05 -0.11791883E-04 -0.11049983E-04  0.94980966E-05
 -0.14975324E-04  0.32855421E-05  0.22795287E-05 -0.59240016E-06 -0.14633015E-05
 -0.20159073E-05  0.23467827E-05 -0.40698132E-05  0.29808998E-05 -0.90727819E-06
  0.16633155E-05 -0.99440946E-06  0.22064650E-05  0.87694659E-05  0.68751368E-06
  0.28155342E-05 -0.15005249E-04  0.31989498E-05  0.31252691E-07 -0.13913493E-05
 -0.11078664E-05 -0.72453322E-06  0.31156665E-06  0.13200055E-05 -0.10521809E-05
  0.51745122E-05 -0.99918574E-06  0.16402117E-05  0.80553575E-06 -0.95103098E-07
 -0.96398450E-07 -0.61834997E-06  0.15494304E-05  0.15449974E-05 -0.10764621E-04
  0.95670711E-06 -0.13146763E-06  0.11848386E-05 -0.29983155E-05 -0.32693590E-05
  0.10606919E-06  0.18703666E-05  0.28225459E-06 -0.46634535E-05  0.39103574E-05
 -0.42675666E-05 -0.21676939E-06 -0.18082359E-05  0.26452675E-04  0.20850797E-04
 -0.32449489E-04  0.15396512E-04 -0.67570299E-04  0.85387937E-04 -0.52673071E-04
 -0.46248622E-04  0.56274949E-04  0.44518156E-06 -0.31336661E-05  0.58969655E-06
 -0.26750515E-05  0.23745785E-05  0.68646887E-06 -0.27041618E-06 -0.86451105E-07
 -0.16139851E-05 -0.63585471E-05 -0.13858711E-05 -0.54479839E-05 -0.45004827E-04
 -0.18161796E-04  0.18056209E-05 -0.83321845E-05 -0.26022603E-04 -0.29059559E-05

  0.14537272E-05  0.90254091E-06  0.13363703E-05  0.56169858E-06 -0.78196924E-06
 -0.95579392E-06 -0.91866532E-06  0.29514234E-06 -0.58397129E-06 -0.70462191E-06
  0.60941457E-06  0.22534853E-05  0.45659391E-06 -0.21561713E-05  0.58818149E-05
 -0.18106585E-05  0.41050273E-06  0.31845899E-07  0.14401802E-04  0.46072785E-05
  0.22977294E-04 -0.23273227E-04 -0.71748195E-07  0.41969679E-04 -0.77503067E-05
 -0.39505040E-06  0.63608001E-05  0.86043551E-06  0.32020452E-06  0.23112514E-05
  0.36763799E-05  0.23172945E-05 -0.11840660E-04  0.88860233E-06  0.17433537E-06
  0.31995400E-06 -0.17211734E-04 -0.11460911E-04 -0.15873630E-04  0.36873595E-05
  0.22120526E-04 -0.53413084E-04  0.71701946E-05 -0.40161262E-05 -0.23146328E-04
 -0.13462463E-05  0.52054015E-06 -0.38239831E-06  0.84507104E-06  0.17494825E-05
 -0.23907990E-05  0.95884021E-06 -0.15731871E-05  0.99515479E-06 -0.57027361E-06
  0.20703570E-06 -0.40799792E-06  0.19972682E-05  0.15617745E-05 -0.55011370E-05
  0.81128774E-06  0.10154881E-05 -0.19868880E-05 -0.82988976E-06 -0.59227768E-06
 -0.49617420E-06  0.12122441E-05  0.10144439E-05 -0.21557969E-05 -0.10208503E-05
 -0.11506765E-05 -0.99072632E-06 -0.36790302E-07 -0.12950293E-05 -0.85326688E-06
 -0.11924511E-04 -0.11245210E-04  0.46855187E-04 -0.87611134E-06  0.49689154E-06
  0.39594405E-06  0.26470910E-06 -0.99066973E-06 -0.73606753E-05 -0.20965012E-05
 -0.32610423E-05  0.22795157E-05  0.16484950E-05 -0.92866922E-06 -0.63938078E-05
  0.32032926E-04 -0.16077922E-04 -0.42931829E-04 -0.11504541E-04  0.48523406E-04
  0.98312564E-05  0.65383978E-06  0.36831312E-04 -0.38037229E-04  0.62562813E-06
 -0.94554800E-07 -0.18072893E-05  0.10692530E-06  0.22473924E-05 -0.36156420E-06
 -0.48116817E-06  0.47440828E-06 -0.10061729E-05  0.12669882E-04 -0.64408307E-05
 -0.72853065E-05  0.15697045E-04 -0.23588287E-05 -0.40490989E-04 -0.11936882E-04
 -0.37079364E-04 -0.80034931E-05 -0.90115583E-06 -0.54626964E-06 -0.17400744E-05
  0.22256234E-05  0.85138960E-06 -0.82712334E-05  0.15355482E-07 -0.29218571E-06
 -0.26661804E-05  0.13782263E-04 -0.30939404E-04 -0.20542475E-04  0.31243220E-04
 -0.25031435E-04 -0.16015424E-05 -0.22461007E-05 -0.12366361E-04 -0.10686245E-04
 -0.12307205E-05  0.70978701E-06  0.22128483E-05  0.40554150E-06 -0.19592443E-05
  0.32820276E-05  0.31138884E-06 -0.15620859E-05  0.31472270E-05  0.99019964E-05
 -0.18710143E-04  0.10097737E-04  0.23030080E-05  0.11177320E-05 -0.25250073E-04
 -0.31805533E-05 -0.69631422E-05  0.22656814E-04  0.47376528E-06  0.45323551E-06
  0.68408793E-06  0.12888505E-05  0.27327158E-05 -0.31124483E-05 -0.72069479E-06
  0.30646811E-05  0.39514039E-05  0.40587709E-06 -0.48790165E-06  0.14085113E-05
  0.94753259E-06  0.19421183E-05 -0.13534817E-05 -0.21642147E-06  0.11486386E-06
 -0.22084435E-05 -0.57045995E-06 -0.31756181E-06 -0.18162379E-05  0.53328013E-06
  0.65048941E-06  0.17183996E-06 -0.10400400E-06  0.82024065E-07  0.41556206E-07
 -0.12908031E-06  0.12919105E-05  0.16085973E-05  0.29453128E-06  0.80781923E-06
 -0.20513356E-05 -0.60729309E-06 -0.10221498E-05  0.23863682E-05  0.33198575E-05
 -0.14218602E-05  0.20779532E-05 -0.10328310E-06  0.25641549E-05 -0.54342540E-06
  0.31264483E-05 -0.33534284E-07 -0.12719012E-05 -0.30359029E-04  0.11819024E-04
  0.45808912E-04  0.21585949E-04  0.17167839E-04 -0.12171639E-03  0.34343892E-04
  0.14860082E-04 -0.67138971E-05 -0.73085587E-06  0.67265908E-06  0.10727062E-05
  0.93238919E-06 -0.74898767E-06  0.18784932E-05 -0.95948653E-06  0.11341688E-05
 -0.48599769E-06  0.40823714E-05 -0.16628937E-04  0.98071465E-05 -0.24338061E-04
  0.15907617E-04  0.65018742E-05 -0.66750986E-05  0.21534859E-04 -0.94878815E-05

 -0.66409908E-06 -0.80962125E-07 -0.50401124E-06 -0.14172437E-06  0.12771601E-05
  0.30617223E-06  0.49130149E-06  0.12489821E-06  0.10961401E-05  0.16367876E-05
 -0.66305485E-06 -0.63110923E-06  0.12931164E-05  0.15211931E-05 -0.87082921E-06
 -0.67153337E-07  0.81075375E-09  0.40628408E-06 -0.88707232E-05  0.70332011E-05
 -0.26746785E-06 -0.35614859E-04  0.62917564E-04  0.75601056E-05  0.35411795E-04
  0.33019223E-05  0.53651552E-05  0.16196978E-05  0.91005242E-06 -0.80252485E-06
 -0.15356600E-05  0.26010285E-06  0.16121915E-05  0.33365349E-06 -0.97575005E-06
  0.22458931E-06 -0.12918127E-06  0.90132980E-05  0.47881630E-06  0.30390651E-05
  0.79372200E-05 -0.17147225E-05 -0.14200129E-04 -0.84220438E-05  0.22525457E-04
 -0.35606453E-06  0.69793342E-06 -0.58066582E-06 -0.33383913E-06  0.20479190E-05
 -0.55668961E-06 -0.43424794E-06 -0.11957207E-05 -0.36790914E-06 -0.65648390E-06
  0.37605405E-05 -0.14320748E-05  0.10795404E-05 -0.43219935E-05  0.20237491E-05
 -0.11301505E-05  0.18775855E-06  0.10886324E-05  0.16959892E-06  0.12120178E-06
  0.42908088E-06  0.67458870E-06 -0.79502449E-06  0.38639735E-07  0.29997047E-07
  0.36826785E-06  0.33999762E-06  0.83912073E-06  0.72491618E-06  0.46671005E-06
  0.54137913E-06  0.33933886E-05 -0.87611134E-06  0.21765366E-04 -0.35483454E-06
  0.19046936E-05  0.77275263E-06  0.29699958E-06 -0.11752619E-05  0.15762371E-05
  0.36557250E-06 -0.20301138E-07 -0.34599391E-06  0.29312717E-05  0.11665140E-05
 -0.65828673E-05  0.12060038E-04  0.23103927E-05  0.93100575E-05 -0.27816749E-04
 -0.33257518E-05 -0.98665782E-05  0.32314133E-05 -0.58341914E-05  0.10793539E-05
 -0.15805868E-05  0.78122271E-06 -0.77865327E-06  0.30257613E-05  0.25333189E-06
  0.36103760E-06  0.13841094E-06  0.20205135E-06 -0.25811165E-05  0.13399793E-04
 -0.74470686E-05  0.16547584E-04 -0.14994890E-04  0.10771906E-04  0.19158046E-04
 -0.20927536E-04  0.32357347E-05  0.12407376E-05 -0.48397954E-06 -0.69125189E-06
 -0.35625773E-06 -0.87841886E-06  0.94464692E-06 -0.10535733E-05  0.22348244E-06
  0.26218806E-06 -0.33219061E-05  0.85477839E-05 -0.83131654E-05  0.11108215E-04
  0.27282320E-04 -0.10520849E-04 -0.61160554E-05 -0.16054982E-04  0.59001522E-05
  0.57361371E-06  0.64538995E-06 -0.38257788E-06 -0.71277392E-06 -0.91851443E-09
  0.25332396E-06 -0.19566482E-05 -0.72487238E-07  0.33656969E-06 -0.17118046E-05
 -0.59051024E-05 -0.14732935E-05  0.17725034E-05  0.84083944E-05 -0.10701686E-05
  0.56231617E-05  0.10354346E-04  0.76741121E-05  0.37199578E-06  0.44313598E-06
  0.77726295E-06 -0.31869300E-06 -0.65409014E-06 -0.16446289E-05 -0.18690670E-05
 -0.46745727E-06 -0.10177106E-05  0.97601930E-06  0.69320372E-06  0.17847225E-06
  0.54964031E-06 -0.27020127E-05  0.55314773E-06 -0.13434446E-05 -0.47642842E-06
  0.14489689E-06  0.14742235E-06  0.39759763E-06  0.52271677E-06 -0.21141510E-06
  0.13070247E-05  0.43224822E-06 -0.76807320E-07  0.39270874E-06  0.81118357E-06
  0.23264506E-06 -0.17079940E-05  0.35673812E-06  0.18476460E-06  0.71413081E-07
 -0.33167724E-06 -0.24965851E-05 -0.16265436E-06 -0.10770454E-05 -0.81246121E-07
  0.21681668E-05 -0.31407210E-06 -0.40843044E-06 -0.14768062E-05  0.40282944E-07
  0.14605935E-06 -0.85672108E-06 -0.37820011E-06  0.42380305E-05 -0.40707769E-05
  0.44806402E-05  0.85987855E-05 -0.29767917E-04 -0.11284733E-04 -0.91767983E-05
  0.35960829E-05 -0.69142250E-05 -0.46923895E-07 -0.29578451E-06 -0.44684876E-06
 -0.62460187E-06  0.43844317E-06  0.32231793E-06 -0.60358183E-06 -0.67727825E-07
 -0.88294789E-06  0.10552832E-04  0.67494575E-05  0.13707367E-04  0.46979900E-04
 -0.13132532E-04 -0.15092712E-04 -0.50217551E-05  0.85920740E-05 -0.55338034E-05

  0.67983940E-07  0.37561663E-06  0.12120606E-05  0.49459705E-06 -0.13408630E-06
 -0.59131497E-08 -0.77697970E-06 -0.10443490E-05  0.17125580E-05  0.45759459E-06
 -0.69009326E-06  0.96055833E-06  0.49227494E-07 -0.49659483E-06  0.50988432E-06
 -0.43326380E-06  0.18688415E-05 -0.28643828E-05  0.76358182E-06 -0.13095524E-04
  0.11766776E-05  0.14258399E-04 -0.18277160E-04 -0.75354421E-05 -0.24001170E-05
  0.89431673E-05  0.59915862E-05  0.93670243E-06 -0.29553165E-06  0.90243983E-06
 -0.14061687E-06 -0.15879015E-06 -0.85576755E-07 -0.11009647E-06 -0.27996258E-05
  0.12196997E-06 -0.99524128E-06  0.27589199E-05 -0.33596696E-05  0.94306045E-05
 -0.33837042E-05  0.14851026E-04  0.77452640E-06  0.63088979E-05  0.11258060E-04
 -0.38579039E-06 -0.16598255E-05 -0.11536942E-05 -0.11913351E-05 -0.59283768E-06
 -0.93725912E-06 -0.69200803E-06 -0.23504962E-05  0.11760777E-05 -0.75436338E-06
 -0.17704374E-05 -0.21994906E-06 -0.94355552E-07  0.21592931E-05  0.59411297E-06
 -0.68235510E-07 -0.19330383E-05  0.10370746E-05  0.44273474E-06  0.47902178E-06
 -0.60280537E-06 -0.59388962E-06  0.64558889E-06 -0.12412448E-05  0.87387636E-06
 -0.15069200E-05 -0.46029353E-06 -0.71110746E-06  0.13630005E-09  0.76282278E-06
  0.41436439E-05 -0.11125197E-05  0.49689154E-06 -0.35483454E-06  0.20328586E-04
  0.74984952E-06  0.68702986E-07  0.56240506E-06  0.85831304E-06 -0.78995418E-06
  0.22181010E-05 -0.27084018E-06  0.26406592E-05 -0.91686432E-06  0.12582233E-05
 -0.41076505E-05 -0.68955651E-05  0.10472056E-04  0.13177145E-04 -0.15640255E-04
  0.22948795E-04  0.98538807E-06  0.56190592E-06 -0.21503746E-04 -0.84169813E-06
 -0.15939690E-05  0.56588176E-06 -0.14155640E-05 -0.42586401E-06  0.11533976E-05
  0.64310285E-06  0.70061244E-06  0.37506864E-06  0.94065642E-05 -0.37597815E-05
  0.78626714E-05  0.22776525E-04  0.58891119E-05 -0.56723667E-04 -0.64385896E-06
  0.95950469E-05 -0.70188663E-05 -0.10057567E-05 -0.43925656E-06  0.18998059E-05
 -0.11817187E-05  0.31622071E-06 -0.10928681E-06 -0.57158522E-06 -0.14687659E-05
 -0.10174674E-05 -0.19433545E-04 -0.85478954E-05  0.32469123E-05 -0.12668426E-04
  0.22332270E-05 -0.80847021E-05 -0.44577685E-05 -0.17873106E-05 -0.88270648E-05
  0.56870684E-07  0.32204688E-06 -0.13887928E-05  0.85004604E-06 -0.43293676E-06
 -0.94324945E-06  0.67320578E-06  0.42099071E-06 -0.86818494E-06 -0.18605580E-05
 -0.11134569E-05  0.15050577E-04  0.11338616E-04 -0.67444714E-08 -0.13530393E-04
 -0.23869815E-06 -0.19359887E-04 -0.23814899E-04  0.14951868E-07  0.79048560E-06
  0.10266905E-05 -0.27097838E-05 -0.10266622E-06  0.27369625E-05 -0.16420888E-06
 -0.23342998E-05 -0.17615154E-05 -0.31495134E-06 -0.74952824E-06 -0.41378845E-08
  0.72581414E-07 -0.22052643E-06  0.77307889E-06  0.45632714E-06  0.15109042E-06
 -0.43927223E-06 -0.57650300E-06  0.16711179E-06 -0.13396300E-05 -0.11964650E-05
  0.63682212E-06  0.11620385E-05 -0.20439612E-06  0.10656447E-06  0.77481031E-06
 -0.23146951E-06  0.15889471E-06 -0.71802842E-06  0.24548016E-06  0.70162934E-06
 -0.62555587E-06  0.49215487E-06 -0.26723982E-05 -0.28367416E-06  0.92640820E-06
 -0.10531286E-05  0.11134348E-05 -0.14116874E-06  0.39467686E-06 -0.99649410E-06
  0.26739261E-06 -0.89993561E-07  0.80076930E-06  0.18328089E-05  0.11929764E-04
  0.79020431E-05 -0.95210135E-05  0.40508114E-05 -0.60352277E-04  0.13698158E-04
  0.17095220E-04  0.34400344E-05  0.82715504E-06  0.27699512E-06  0.23970675E-07
 -0.85846377E-07  0.30752560E-06  0.36984674E-06 -0.19796807E-06  0.80508944E-06
  0.13821400E-06 -0.75105664E-05 -0.23562719E-05  0.18633883E-04  0.12631118E-04
 -0.74152075E-05  0.16092548E-04 -0.82600515E-05  0.12655091E-05 -0.88697637E-05

 -0.12543436E-05 -0.64237287E-06  0.81294667E-06  0.41661274E-06 -0.12101012E-05
  0.16492888E-06  0.55491255E-06  0.15753953E-05 -0.58035054E-07 -0.23644722E-06
  0.89115903E-06 -0.19312834E-06  0.47536400E-06 -0.12371316E-05  0.10172422E-05
  0.99105557E-06  0.23588622E-06 -0.56454221E-06  0.57698725E-06  0.99477252E-06
 -0.25435996E-04 -0.19201092E-04  0.17543826E-05 -0.25011054E-06  0.35227740E-05
  0.19076332E-04  0.25360994E-04 -0.26973951E-06 -0.15900928E-05  0.14769055E-05
  0.77492285E-06 -0.14779253E-05  0.10703742E-05  0.19891812E-06  0.76632360E-07
 -0.47981924E-07 -0.30748920E-06 -0.21035617E-05 -0.41550536E-05 -0.45912567E-06
 -0.15879097E-04  0.81857338E-05  0.17894788E-04 -0.53367774E-05 -0.83262994E-05
 -0.62288482E-06  0.76567993E-06 -0.95690943E-06 -0.67098383E-06  0.11608375E-05
  0.39142768E-06 -0.30264982E-06  0.40109608E-06 -0.33261162E-05 -0.12800998E-05
  0.40741558E-06 -0.19679633E-06 -0.75390248E-06  0.16814481E-05 -0.98445625E-06
  0.14700780E-05  0.15200545E-05  0.67009236E-06  0.47534216E-06 -0.13070436E-05
  0.14269790E-05  0.19961733E-06 -0.98351526E-06  0.91172785E-06 -0.61854421E-06
 -0.19378298E-06 -0.19618041E-05  0.47519894E-06 -0.13060934E-05 -0.57587991E-06
 -0.77203737E-06  0.11865382E-05  0.39594405E-06  0.19046936E-05  0.74984952E-06
  0.32968656E-04  0.11867571E-05 -0.20556546E-05 -0.42774631E-05  0.30089127E-05
  0.44785240E-05 -0.48820824E-05  0.16224764E-05 -0.63436682E-06 -0.78583716E-05
  0.25459574E-07 -0.10609283E-04 -0.25386369E-04  0.30875230E-04  0.15094812E-05
 -0.83584272E-04  0.10671578E-05  0.96009447E-06 -0.91253760E-05 -0.44204288E-06
 -0.79697380E-06 -0.65890547E-06 -0.56873716E-06  0.13187943E-05  0.11815351E-05
 -0.12032504E-07  0.11364907E-05 -0.28333297E-07 -0.39103059E-05 -0.87628449E-06
 -0.97453226E-05 -0.11992397E-05 -0.93676034E-05 -0.19422737E-05  0.10892370E-04
  0.21140953E-04  0.13277512E-04 -0.18803955E-05  0.17321216E-05 -0.79570656E-06
  0.72825566E-06 -0.26811682E-05  0.23129098E-06  0.88660690E-06 -0.53311628E-06
 -0.14690074E-05  0.94976246E-05 -0.26500850E-04 -0.78592719E-06 -0.15796174E-05
 -0.25057742E-04 -0.18643595E-04  0.16481398E-04 -0.67138900E-06  0.34608874E-05
 -0.11909540E-05  0.80097600E-08 -0.12287058E-05  0.10719915E-05  0.19421688E-07
 -0.10025991E-05  0.19201856E-05 -0.25385040E-07 -0.39461837E-05  0.65304323E-05
  0.94024502E-05  0.18534114E-05 -0.43401283E-05  0.50253404E-04  0.47347689E-05
  0.90595686E-05  0.64939867E-05  0.10014069E-04  0.15271721E-05 -0.17535721E-05
 -0.39948657E-06 -0.18658414E-06 -0.35582364E-05  0.20809967E-05 -0.15295949E-05
 -0.19828208E-05  0.12784231E-06  0.44143935E-06 -0.21843080E-05 -0.27035797E-06
  0.18016057E-06 -0.47788568E-06 -0.96185248E-06 -0.52320664E-06 -0.12300210E-05
 -0.24643882E-05 -0.11253659E-06  0.19551964E-05  0.12939238E-05 -0.12302228E-07
  0.12430539E-05 -0.20440951E-06 -0.15257962E-06  0.95539028E-06 -0.74045156E-06
 -0.16030580E-06 -0.20520919E-05  0.31362877E-06  0.43062044E-07 -0.11237753E-05
 -0.54392611E-06 -0.44715773E-06  0.37570178E-06 -0.36320620E-05  0.10243877E-06
  0.38521637E-07  0.88829589E-06 -0.15553911E-05  0.12648071E-05 -0.11850124E-06
 -0.13070705E-06 -0.12353598E-05 -0.18305567E-05  0.12436899E-05 -0.69651613E-05
  0.14872741E-04 -0.51943797E-05  0.24925311E-05  0.11531502E-04  0.51900962E-05
 -0.90743854E-05 -0.24309556E-04 -0.90772153E-06 -0.10377507E-06  0.18848426E-06
  0.24813517E-06 -0.34342701E-06 -0.52574149E-06 -0.12122866E-05 -0.17683557E-06
 -0.16169037E-05  0.19640263E-04  0.60385136E-06  0.70708835E-05 -0.53467171E-05
  0.77932803E-05  0.11021801E-04 -0.86267240E-05 -0.41731612E-05 -0.17691947E-04

  0.93831354E-06 -0.89853696E-06  0.53654708E-06 -0.10604094E-05  0.96290912E-06
 -0.12441359E-05 -0.46027709E-06  0.21122700E-06 -0.15983339E-06 -0.37428880E-06
  0.50213152E-06  0.27516463E-05  0.97537762E-06  0.25075542E-05 -0.30511830E-05
  0.20507662E-06 -0.16353487E-05 -0.49953493E-06  0.92855186E-05  0.13434392E-04
  0.31048302E-05  0.22555106E-04 -0.30352003E-04  0.57400349E-05 -0.10786845E-05
  0.48490090E-05  0.18894198E-04 -0.12824592E-05  0.78899525E-06 -0.98689962E-07
  0.11667584E-05 -0.11036196E-05  0.34179805E-05 -0.46885647E-06  0.15335762E-05
  0.20816272E-05  0.33891685E-05 -0.47691790E-05  0.25326434E-04 -0.31325129E-05
  0.35103893E-04  0.12376250E-04 -0.50239620E-06 -0.81357230E-05  0.27748121E-04
  0.21960425E-05  0.27943288E-06  0.81691557E-07  0.13070631E-06 -0.37921713E-06
  0.16241180E-05 -0.81024386E-06 -0.47248146E-06 -0.83089056E-06 -0.11939811E-05
  0.14810154E-05 -0.11117763E-05  0.34751503E-06 -0.19490249E-05 -0.45843440E-06
 -0.78953965E-06  0.12700651E-05 -0.88724115E-07 -0.52005753E-07 -0.64352780E-07
  0.45889733E-06 -0.91413299E-06 -0.17958283E-05  0.33205892E-05  0.32854763E-06
 -0.51921404E-06 -0.21892811E-06 -0.73746134E-06 -0.20788451E-05  0.60492643E-06
 -0.29760202E-06  0.14805247E-05  0.26470910E-06  0.77275263E-06  0.68702986E-07
  0.11867571E-05  0.43106124E-04  0.33017608E-05 -0.32831442E-05  0.36223654E-05
 -0.46502882E-05 -0.77755015E-05 -0.99134517E-06 -0.11379259E-04 -0.16547628E-05
 -0.39762130E-04  0.50902469E-04 -0.15871077E-03  0.18879622E-03  0.76411747E-04
 -0.25390373E-03 -0.19107301E-05 -0.54372613E-04  0.45417260E-04 -0.23465944E-05
  0.52574239E-05  0.58670637E-06 -0.33690908E-05  0.86183002E-05 -0.15909324E-05
  0.21096295E-05 -0.72086062E-06 -0.28240425E-05 -0.11146076E-05  0.23522977E-04
 -0.14041173E-04  0.54373461E-04 -0.77963071E-05 -0.38887147E-04  0.19240845E-04
  0.94696989E-05  0.15714713E-04 -0.27999199E-05 -0.22976126E-05 -0.14480138E-06
  0.16817473E-05 -0.14088297E-06 -0.22552014E-06  0.13496453E-05  0.15219995E-05
 -0.32233833E-05 -0.66626724E-05 -0.34715965E-04 -0.11660281E-04  0.67263127E-04
 -0.15817926E-04  0.56035752E-05 -0.19566900E-04 -0.24353817E-04  0.54863570E-05
 -0.14585913E-05  0.50265965E-07 -0.25943931E-05  0.48786710E-06 -0.35349107E-05
  0.24822080E-05  0.14170768E-05 -0.12556123E-05 -0.13748825E-05 -0.15005005E-04
 -0.13140966E-05  0.35383781E-05 -0.11123890E-04  0.16165654E-04 -0.16490546E-04
 -0.80926662E-05  0.16958368E-04  0.30456779E-04  0.57224969E-06  0.23107308E-06
 -0.11064452E-05  0.73398653E-06  0.22093970E-05 -0.10749281E-05 -0.29105045E-06
  0.13624681E-05  0.63554552E-06  0.11927052E-05  0.13847042E-05 -0.21996488E-06
  0.17533905E-05  0.80537622E-06  0.32584215E-05  0.10623027E-05 -0.49064237E-06
  0.48284702E-06  0.23334505E-06 -0.40713609E-06 -0.38212819E-06  0.16506127E-06
  0.62941457E-06 -0.13790285E-05 -0.90607114E-06  0.21790002E-06  0.40873178E-06
 -0.36847301E-06 -0.44082657E-06  0.14275484E-05  0.74380069E-06 -0.19685759E-05
  0.22310142E-05  0.28183444E-06  0.74817765E-06  0.75405200E-06  0.97416245E-07
 -0.42305804E-05 -0.15525379E-05  0.14377571E-05 -0.22242340E-05  0.35812305E-05
  0.69060967E-06  0.75318037E-06 -0.13087803E-05 -0.13961613E-04  0.26714813E-05
 -0.30018521E-04  0.31768451E-04 -0.17411999E-04 -0.51732952E-04 -0.15015682E-04
 -0.18274162E-05 -0.54588660E-05  0.58113521E-06 -0.58629707E-06 -0.11780619E-06
  0.10487620E-05  0.81111051E-06 -0.23388752E-05 -0.54728205E-06 -0.78215341E-06
  0.45285877E-06 -0.15288186E-04 -0.95550942E-05 -0.99300799E-05  0.30303988E-05
 -0.26303498E-05  0.14701993E-04 -0.12014105E-04  0.46232086E-05 -0.11615569E-04

 -0.27939854E-05 -0.20618146E-05 -0.99113583E-08  0.18099849E-05 -0.61292688E-05
  0.57997997E-06 -0.18111174E-05  0.14889526E-07  0.31860888E-06 -0.56142976E-06
 -0.15804598E-05  0.18827521E-05 -0.50945967E-06  0.21454120E-05  0.56742228E-08
  0.11103955E-06  0.18777603E-05 -0.27412895E-05 -0.27247995E-04 -0.37672698E-04
  0.59907688E-05 -0.20838362E-04  0.24024536E-04  0.32517569E-04  0.17167992E-04
  0.23251526E-04  0.41617745E-05  0.44230226E-06 -0.30558718E-05  0.71307464E-06
  0.20065391E-06 -0.12164652E-05 -0.17273632E-05  0.66105295E-06  0.18219005E-05
  0.82808606E-06 -0.86519145E-05 -0.22428151E-05  0.30460306E-05 -0.72976440E-05
 -0.36276328E-04  0.42402092E-04 -0.23932856E-04 -0.10056842E-04 -0.22383253E-04
 -0.53052750E-06 -0.19617661E-05 -0.63713985E-07 -0.26323158E-05 -0.25863240E-05
  0.34380176E-05 -0.43091712E-06 -0.19666915E-05  0.14261673E-05 -0.14128702E-05
 -0.75129466E-06 -0.56657183E-06 -0.33876632E-06  0.98080728E-06  0.25891465E-05
  0.11224913E-05 -0.27442710E-06 -0.30486043E-05  0.25748338E-07 -0.23896034E-05
 -0.29411180E-05 -0.36910860E-06  0.63349374E-06 -0.18118306E-05  0.67853745E-06
 -0.28111392E-06  0.13069382E-05  0.96385930E-06 -0.64297958E-06  0.98812268E-06
  0.17770575E-05  0.28772591E-05 -0.99066973E-06  0.29699958E-06  0.56240506E-06
 -0.20556546E-05  0.33017608E-05  0.63979906E-04 -0.26713872E-05 -0.10687457E-05
  0.15951417E-05 -0.85989982E-06  0.47648904E-05 -0.10523225E-05 -0.93881410E-05
  0.35869077E-04 -0.96344278E-04 -0.72937626E-04  0.22846791E-04  0.73684263E-04
 -0.92809205E-04  0.72613536E-04  0.72430613E-04 -0.20749570E-03  0.73912113E-05
  0.44860438E-05  0.14198091E-06  0.52197873E-07  0.87282139E-05 -0.22780220E-05
  0.79879299E-05 -0.38160885E-05 -0.42151469E-05  0.35354785E-05  0.30558213E-05
  0.43783523E-05 -0.38621725E-04  0.80529186E-05 -0.17177294E-04 -0.24840433E-04
 -0.16243095E-04  0.42039418E-04 -0.98412640E-07 -0.22358574E-05  0.43951905E-05
  0.17270251E-06  0.10503272E-05  0.12614953E-05  0.14273376E-05  0.93957803E-06
  0.44493997E-05 -0.33213027E-05 -0.78561000E-05  0.18551808E-04  0.88731581E-05
  0.51801534E-04  0.27326261E-04  0.24950013E-04 -0.22911882E-04 -0.25388448E-05
  0.61299184E-06  0.54831761E-05  0.33697685E-06 -0.62780765E-06  0.78109518E-05
 -0.18870234E-06 -0.21041118E-05 -0.60724487E-06 -0.27338343E-05 -0.11395132E-04
  0.81469820E-05 -0.11221086E-05  0.13607330E-05  0.72682515E-04 -0.25825993E-04
  0.92648134E-07 -0.99711558E-05 -0.40632787E-04  0.61306009E-06  0.33677026E-05
 -0.11442334E-06 -0.57039833E-06 -0.29492615E-05  0.30393060E-05 -0.20654070E-05
  0.76096966E-06 -0.55351305E-06 -0.52237598E-06  0.20940940E-05  0.14056922E-05
 -0.16346553E-06  0.24099064E-05  0.44137191E-06  0.66558797E-06 -0.95197541E-06
  0.50428482E-05  0.17971957E-06 -0.22479764E-05 -0.51641954E-06  0.30592805E-06
 -0.15843955E-05 -0.14368555E-05 -0.65481768E-06 -0.95645113E-06  0.61706319E-06
  0.15457431E-05 -0.15691249E-05  0.10184979E-05 -0.44491567E-06 -0.29310836E-05
  0.76183925E-06 -0.44010975E-06  0.11267727E-05  0.27381844E-06 -0.15217600E-05
 -0.49813188E-05  0.54738904E-05  0.74019298E-06 -0.72205154E-05  0.11703766E-05
  0.24610169E-05 -0.18290005E-06  0.49824981E-05  0.75865356E-05  0.18063872E-04
 -0.69134854E-04 -0.38046878E-05 -0.78300172E-04  0.18730254E-03 -0.38674692E-05
 -0.35595164E-04  0.19681864E-04  0.41776626E-06 -0.26284712E-05  0.24682193E-06
  0.49235848E-06  0.28447241E-05 -0.29366449E-06 -0.10437209E-05  0.73279166E-06
 -0.36482236E-06 -0.31968651E-04  0.35426214E-05 -0.57593678E-05  0.41300296E-04
 -0.11667176E-04 -0.29110273E-04 -0.19590924E-05 -0.15341018E-04  0.92739402E-05

  0.36266003E-06  0.28078325E-05  0.19941357E-05 -0.30283325E-05 -0.52932870E-06
  0.25927915E-05 -0.36520102E-06 -0.35743686E-05  0.24914927E-05  0.14929019E-05
 -0.12682651E-05  0.12504183E-05 -0.88140146E-06 -0.25346486E-05 -0.15751624E-05
  0.19362280E-06 -0.32651471E-06 -0.15420444E-05 -0.30975490E-04 -0.47937594E-05
 -0.29414603E-04  0.81528272E-04 -0.15276830E-04 -0.63412747E-04  0.30449623E-04
 -0.10844537E-04  0.92227927E-05 -0.10649783E-05  0.20978107E-05 -0.32733631E-05
 -0.10971657E-05  0.73273297E-06  0.55011898E-05  0.28078562E-05  0.20322448E-05
 -0.14756983E-05  0.32919655E-04  0.22832742E-04  0.44210222E-05  0.86636450E-05
  0.76724403E-05  0.29433291E-04  0.80695872E-05  0.31269045E-04 -0.43482820E-05
 -0.87746768E-06 -0.21177996E-05  0.33000250E-05 -0.17529508E-05  0.27319933E-05
 -0.97528650E-06 -0.13913373E-05  0.87267569E-06  0.10922376E-05 -0.43201498E-06
  0.79220049E-07 -0.53759506E-05  0.62850433E-06 -0.16071867E-05  0.95605931E-06
  0.42876871E-06 -0.46783042E-06 -0.11639873E-05  0.64255540E-06 -0.26363505E-07
 -0.53295681E-06 -0.16411066E-05  0.62889248E-06 -0.21964809E-05  0.10317897E-05
  0.12034622E-06  0.22541705E-05  0.22595648E-05  0.45467249E-05  0.12595557E-05
  0.29825608E-05 -0.20320391E-05 -0.73606753E-05 -0.11752619E-05  0.85831304E-06
 -0.42774631E-05 -0.32831442E-05 -0.26713872E-05  0.60452342E-04  0.14663295E-04
  0.12213554E-04 -0.14785984E-04  0.33766451E-05  0.16371133E-05 -0.13018603E-05
 -0.14264019E-03 -0.42159810E-04  0.17916229E-03 -0.17763268E-04 -0.13471617E-03
  0.61796368E-04  0.63710591E-04 -0.14922634E-03 -0.39630053E-04 -0.24042818E-05
 -0.43851376E-05 -0.19930824E-05 -0.21341408E-06 -0.96895267E-05  0.32445809E-05
 -0.52403319E-05 -0.94691924E-06  0.13181818E-05 -0.30387949E-04 -0.14714554E-04
  0.21102636E-04  0.11724256E-04 -0.16580222E-04  0.48901727E-04 -0.31856026E-05
 -0.11823391E-04 -0.24578851E-04 -0.37034596E-06  0.31728025E-06 -0.46092519E-05
 -0.24172699E-06 -0.62443003E-06  0.71931320E-06  0.41431152E-06  0.28850292E-05
  0.49953875E-05  0.36178520E-05 -0.23172103E-05  0.79956664E-05 -0.13346167E-04
  0.19410841E-05 -0.32982219E-04  0.38830018E-05  0.11768709E-04  0.28900457E-04
 -0.10746162E-05  0.55588919E-06 -0.42603277E-05 -0.10178899E-05  0.35792510E-05
 -0.56764994E-06 -0.58790858E-06  0.42681831E-06  0.13547609E-05  0.73191464E-05
  0.44625006E-05 -0.63391808E-04  0.14706409E-05 -0.20725323E-04  0.10288141E-04
  0.60449283E-05 -0.35658597E-04 -0.24319042E-04 -0.12882241E-05 -0.20668544E-05
  0.23606589E-05  0.44840554E-07 -0.29737282E-05  0.94734103E-06  0.96021272E-06
 -0.12744301E-05 -0.35687809E-06 -0.10037149E-05 -0.76206508E-06 -0.53427780E-05
  0.38578468E-06 -0.41990579E-05 -0.46760816E-06  0.64644676E-06  0.45414466E-05
  0.20988049E-05  0.19491615E-05  0.32610121E-05  0.15825170E-05 -0.79577487E-06
  0.27041610E-06  0.60782763E-06 -0.31183990E-06 -0.17655486E-05 -0.16780048E-05
  0.10502437E-05 -0.12290102E-05 -0.25609053E-05 -0.59181487E-06 -0.10691356E-05
  0.20829813E-05  0.16086285E-06  0.12823815E-05  0.14176589E-06 -0.33673838E-05
  0.76552372E-06 -0.73453663E-06  0.14466595E-05 -0.62378120E-06 -0.15362306E-05
 -0.27786060E-05  0.18294475E-05 -0.25950337E-05 -0.55218285E-06 -0.14671704E-04
 -0.47391206E-04 -0.10389075E-04  0.79006151E-05 -0.16262109E-04 -0.51118524E-05
  0.27375022E-05 -0.35073914E-05  0.10349189E-05  0.74062489E-06 -0.10353438E-05
 -0.58973427E-06  0.65717541E-06 -0.42430436E-05 -0.10288517E-06 -0.10931044E-05
 -0.15066094E-05  0.17731225E-04  0.22888325E-04 -0.20186453E-04 -0.22635422E-06
  0.31945017E-05 -0.19842467E-05  0.90112320E-05 -0.14579491E-04 -0.56975135E-05

 -0.37572521E-05  0.26073987E-06  0.55327117E-06 -0.11906768E-05  0.16729483E-05
 -0.17999682E-05  0.51233365E-07 -0.11308912E-06  0.94152333E-06  0.11302149E-05
  0.62004675E-06  0.12838360E-05  0.98593253E-07 -0.45114390E-06  0.42907445E-06
 -0.26531416E-06 -0.76391387E-06 -0.13140704E-05 -0.53558720E-05  0.16137639E-05
 -0.25142400E-05  0.73134464E-05 -0.18956511E-04 -0.17141579E-04  0.35149783E-05
 -0.85378313E-05  0.16272207E-04 -0.78726721E-06  0.22256164E-06 -0.14100216E-05
 -0.32905493E-06 -0.63550295E-06  0.26616088E-05  0.11361618E-05  0.28833405E-06
 -0.17752631E-05  0.14985407E-05  0.30229265E-04 -0.27366824E-05  0.27530533E-04
  0.28190119E-05  0.14885191E-04  0.15022442E-04  0.16406257E-04  0.10587220E-04
 -0.11745210E-05 -0.89917913E-06  0.24920065E-06  0.25192380E-05 -0.20342724E-05
  0.12559965E-05 -0.10684492E-05 -0.14373707E-05 -0.56854799E-06  0.21703461E-05
  0.17319446E-05 -0.11013112E-05 -0.39820598E-05  0.24581599E-05  0.96645467E-06
 -0.97231370E-08 -0.69223046E-06  0.32399267E-06 -0.15687854E-06  0.61755127E-06
  0.83039541E-06 -0.12780191E-05  0.15515608E-05  0.10938267E-05 -0.34063277E-06
  0.35016629E-06  0.12080089E-06 -0.68600560E-06 -0.12573131E-05 -0.26308928E-05
 -0.36769733E-05  0.61722251E-05 -0.20965012E-05  0.15762371E-05 -0.78995418E-06
  0.30089127E-05  0.36223654E-05 -0.10687457E-05  0.14663295E-04  0.61930226E-04
 -0.14954246E-04 -0.27414246E-04  0.39953368E-05  0.60572209E-06  0.82850917E-06
 -0.12812154E-03 -0.69323287E-05  0.86607063E-04  0.13653020E-04 -0.53316657E-04
 -0.36389715E-05  0.15421101E-04 -0.17557904E-03 -0.13602259E-05  0.53417378E-06
 -0.22512757E-05  0.11787796E-05 -0.36720437E-05 -0.11031976E-05  0.33021453E-05
  0.39337017E-05 -0.66591725E-06  0.65635264E-06 -0.11261731E-04 -0.11147832E-04
 -0.81494897E-05 -0.30417506E-04  0.28993986E-04  0.32969975E-04  0.12479917E-04
  0.50347655E-05 -0.86309030E-05 -0.21793333E-05 -0.39265857E-06 -0.24259947E-05
 -0.25176869E-05  0.22222247E-05 -0.38224951E-06 -0.66085745E-06  0.25284105E-05
  0.19583146E-05 -0.91363431E-05  0.21462350E-06  0.74925515E-05  0.18315249E-05
 -0.81789882E-05  0.13465044E-04  0.14508874E-05  0.19431482E-05  0.14561718E-04
 -0.13965261E-05 -0.62714288E-07 -0.26784735E-06 -0.19315470E-05  0.23831220E-05
  0.10503061E-05 -0.11970242E-05 -0.61510702E-06  0.67705030E-06 -0.22754990E-04
  0.30378602E-06 -0.12114010E-04  0.18841539E-04 -0.10768445E-05 -0.13299081E-04
 -0.93731478E-05  0.12501449E-04 -0.51302308E-05 -0.29290384E-06 -0.35706414E-06
  0.80156125E-06 -0.10524492E-07 -0.30355465E-06  0.23065624E-05 -0.32206220E-06
  0.17716660E-05  0.84043712E-06  0.15970609E-05 -0.38974640E-06 -0.51481876E-06
 -0.38495238E-05 -0.16072740E-05  0.16287050E-05 -0.55375327E-06  0.48443788E-06
  0.33248703E-06  0.55715295E-06  0.10735449E-05  0.25578002E-06  0.10691388E-05
 -0.26724162E-06  0.10038528E-05  0.45741321E-06  0.38553211E-06  0.22964485E-06
 -0.58203168E-06 -0.31824421E-06 -0.24347658E-05 -0.26207031E-05 -0.67319392E-07
  0.17663518E-05 -0.23948053E-06  0.41034894E-06 -0.13798226E-06 -0.17062516E-05
 -0.34246405E-05  0.10964784E-05  0.34719914E-05 -0.19977229E-05  0.10485912E-05
 -0.24451056E-05 -0.13149922E-05 -0.20932580E-05  0.10385393E-04 -0.11506180E-04
 -0.83427709E-05 -0.61700061E-04  0.58839448E-05 -0.25214445E-04  0.93830458E-05
  0.32665009E-04  0.12515119E-05  0.28546156E-05 -0.85694598E-06 -0.51856382E-06
 -0.71664747E-06  0.16073976E-05 -0.11193938E-05 -0.11985519E-05  0.39824059E-06
 -0.24216828E-06  0.10036562E-04  0.18581973E-04 -0.14308121E-04 -0.12329366E-04
  0.45077718E-05 -0.82408349E-05 -0.11097277E-05  0.72319940E-05 -0.63553050E-05

 -0.52227900E-06 -0.17214886E-05 -0.99779492E-06 -0.44869772E-06 -0.43573748E-05
  0.20723653E-05  0.52424594E-06  0.49085412E-07  0.21670919E-05  0.22932898E-07
 -0.14018983E-05  0.94209067E-06  0.18197346E-06 -0.25475189E-05  0.69145149E-06
  0.21333743E-05  0.97626907E-06 -0.12275751E-06 -0.31271244E-04 -0.30914129E-04
  0.11348926E-04  0.90680701E-04 -0.62903679E-04  0.17891773E-04  0.21749586E-04
  0.16627288E-04 -0.39708488E-05  0.15459994E-05  0.16349108E-05  0.10460033E-05
 -0.23151002E-05  0.61199987E-05  0.27322078E-05  0.11778202E-05 -0.21471008E-05
 -0.10968018E-05 -0.90584342E-05  0.46963717E-05 -0.21379699E-04 -0.32265622E-05
 -0.43875145E-04  0.23335623E-04 -0.22421789E-04 -0.74001226E-05 -0.99647256E-05
  0.65749502E-06  0.66919256E-06  0.21837343E-05 -0.20218791E-05  0.40420369E-05
  0.19227326E-06 -0.26444528E-05 -0.34729981E-06 -0.98197242E-06 -0.22939292E-05
 -0.28766148E-05  0.10716648E-05  0.25148395E-05 -0.12117761E-04  0.40380008E-05
  0.23497629E-05  0.12584867E-05 -0.97228922E-06 -0.13130090E-05 -0.18939747E-05
 -0.24206214E-05  0.15001036E-05 -0.43525737E-05  0.20430206E-06  0.86289615E-06
  0.36892619E-06 -0.24019478E-06  0.13294807E-05 -0.58863433E-05 -0.75911531E-08
  0.25054314E-05 -0.32124332E-05 -0.32610423E-05  0.36557250E-06  0.22181010E-05
  0.44785240E-05 -0.46502882E-05  0.15951417E-05  0.12213554E-04 -0.14954246E-04
  0.10063973E-03 -0.26277780E-04  0.13076103E-04  0.30503863E-05 -0.91763990E-05
 -0.50907363E-04 -0.71247723E-04  0.10409110E-03 -0.16079647E-04 -0.11644928E-03
  0.13831649E-04  0.10610959E-03 -0.64683804E-04 -0.21310065E-03 -0.86236721E-05
 -0.13111793E-04 -0.25619264E-05 -0.29870494E-08 -0.94243920E-05  0.70245858E-05
 -0.13172656E-04  0.14821181E-05  0.93155973E-05  0.49728708E-05 -0.73523112E-04
 -0.55151472E-04  0.18029765E-03 -0.12289141E-03 -0.31818689E-04 -0.10387143E-04
 -0.40720706E-04 -0.45100238E-04 -0.28800564E-06 -0.98811790E-06  0.30510825E-05
  0.15712142E-05 -0.72100315E-05  0.45135894E-06  0.84125243E-06  0.47141778E-06
  0.80657731E-06  0.19039320E-04 -0.18054820E-04 -0.19282935E-04  0.11736727E-04
 -0.30247623E-04  0.35653872E-04  0.11211044E-04 -0.32669803E-04  0.11603934E-04
  0.13702203E-05  0.42771995E-05 -0.82559557E-06  0.13047652E-05 -0.39959452E-05
  0.10177372E-05  0.48630295E-05 -0.81029473E-06 -0.21472692E-05  0.14285138E-04
  0.45215136E-05  0.33466798E-05 -0.11938696E-04  0.58844295E-04 -0.21295999E-04
  0.24670308E-04 -0.54837858E-05 -0.38341929E-04  0.11376173E-05  0.60703787E-05
 -0.23379836E-06  0.16447561E-05 -0.12636302E-04  0.46610278E-05 -0.10977338E-05
 -0.46581271E-06 -0.62162378E-06 -0.22785015E-05  0.50479604E-06 -0.95020455E-06
 -0.42010435E-06  0.36204289E-05 -0.12138077E-05 -0.24941978E-05 -0.29386877E-06
 -0.64725821E-06  0.90781220E-06  0.65321347E-06 -0.10781031E-05  0.11324281E-06
 -0.12429517E-05  0.17716028E-06 -0.38979114E-05 -0.63968410E-06  0.34437256E-06
  0.57537670E-06 -0.71653775E-05  0.10318299E-06  0.11997475E-05 -0.45936693E-05
  0.12252833E-05 -0.39266035E-06 -0.68133595E-06 -0.36661788E-05 -0.90942651E-06
  0.67523992E-05  0.80156932E-06 -0.22616844E-05  0.23843306E-05 -0.74379173E-06
 -0.31960803E-05 -0.26470652E-06  0.29805656E-05  0.20530979E-04  0.64873791E-05
 -0.10330138E-04  0.12422183E-04  0.68660181E-04  0.47643898E-04  0.11105030E-04
 -0.12389421E-04 -0.24976476E-04  0.26289467E-07  0.23152136E-05 -0.11981064E-05
  0.11292371E-05 -0.22675448E-05 -0.48604389E-06  0.82014538E-06 -0.95072423E-06
 -0.30381845E-05  0.24461619E-04  0.35177698E-05  0.37496281E-04 -0.45184386E-05
  0.25609909E-04 -0.46850402E-05  0.19600203E-04 -0.17531606E-04 -0.49250982E-05

  0.52044516E-06 -0.26804883E-05  0.19616264E-05 -0.10092333E-07 -0.49526910E-07
  0.59167892E-05  0.12555265E-05 -0.24200945E-05 -0.20102532E-05 -0.24067149E-05
 -0.16010398E-05 -0.46995435E-05  0.81610195E-06  0.15401047E-05  0.28841164E-06
 -0.17622193E-05 -0.17173049E-05  0.19755417E-05  0.41624234E-04  0.12754285E-04
 -0.24981760E-04 -0.79736971E-04  0.58312038E-04  0.44795457E-04 -0.42666783E-06
 -0.46825753E-05 -0.31011083E-04  0.34241358E-06 -0.53039689E-06 -0.13942464E-05
  0.26090152E-05  0.52977790E-07 -0.44374844E-05 -0.14814247E-05  0.14157811E-05
 -0.25814587E-06  0.50738125E-06 -0.25514064E-04  0.76108683E-05  0.10164835E-04
  0.24776480E-04 -0.57719093E-04  0.14056174E-04  0.70190040E-05  0.16956400E-04
 -0.15487033E-06  0.36157249E-06 -0.18150583E-05  0.12730964E-05 -0.92996664E-06
 -0.36731285E-05  0.91770833E-06  0.65426573E-06 -0.12372016E-05 -0.64469264E-06
  0.10220780E-05  0.22375790E-05  0.16477643E-05  0.20534545E-05 -0.15689559E-05
 -0.10460995E-05 -0.10512753E-05 -0.81045850E-06  0.49913631E-06  0.14767883E-05
  0.38173562E-06  0.25623808E-05  0.23193712E-05 -0.62997823E-05  0.45620126E-07
  0.17178247E-06  0.11560289E-05 -0.64996431E-06  0.56680045E-05  0.43383345E-05
  0.21036648E-05 -0.50515071E-05  0.22795157E-05 -0.20301138E-07 -0.27084018E-06
 -0.48820824E-05 -0.77755015E-05 -0.85989982E-06 -0.14785984E-04 -0.27414246E-04
 -0.26277780E-04  0.76883263E-04 -0.85171938E-05  0.48662565E-05  0.47465322E-05
  0.14340450E-03  0.50193166E-04 -0.18666757E-04 -0.76972312E-04  0.64371456E-04
  0.23497781E-03 -0.76406504E-04  0.11342194E-03  0.46967308E-04  0.37620244E-05
  0.76055774E-05  0.26599046E-06  0.41628731E-06  0.10665353E-04 -0.79938530E-05
  0.43900808E-05 -0.17712192E-05 -0.50116183E-05 -0.46147133E-05  0.37641203E-04
  0.12707709E-04 -0.13107870E-04  0.30387698E-04 -0.85241374E-04 -0.65843636E-05
  0.41456501E-05  0.19310734E-04  0.32284695E-06 -0.17293622E-05  0.17687753E-05
 -0.74374653E-07  0.23413612E-05  0.11814383E-05  0.50778255E-06 -0.72580579E-06
 -0.69890742E-06 -0.61348295E-05  0.92061870E-06  0.45693271E-04  0.38687799E-04
  0.11981631E-04 -0.60076724E-04 -0.23274692E-04  0.91170038E-05  0.10420018E-04
 -0.97644764E-06 -0.79444547E-06 -0.35750996E-05  0.19563654E-05  0.17289992E-05
 -0.98102777E-05 -0.19881903E-05  0.36027255E-06 -0.11140418E-05  0.76034549E-05
  0.74794869E-05  0.30764997E-04 -0.46668097E-05 -0.17468135E-04  0.33661672E-04
  0.80875349E-05 -0.16404127E-04  0.13488107E-05 -0.11006155E-05 -0.10683420E-06
  0.19340301E-05  0.15738542E-05  0.57578127E-05 -0.57102451E-05 -0.59210779E-06
 -0.86979363E-06 -0.26058143E-05  0.41531570E-06 -0.10995443E-05 -0.54435910E-06
  0.97887136E-06  0.23205224E-05 -0.19872873E-06  0.59739492E-06 -0.40781803E-06
  0.31326297E-05  0.15867821E-06 -0.40631301E-06  0.39125168E-07  0.55224639E-06
 -0.14970440E-05  0.21158480E-05  0.54199635E-06 -0.73646477E-06 -0.89523778E-06
  0.28668159E-07  0.41724234E-05  0.13113947E-05  0.18553607E-05  0.25450412E-05
 -0.37840581E-06  0.35491436E-06 -0.96875380E-06  0.24027197E-07  0.97529836E-06
  0.12689401E-05 -0.63993410E-06 -0.99491651E-07  0.26577448E-05 -0.75229524E-05
  0.23013296E-05  0.17879641E-05  0.23079661E-05 -0.11243700E-04  0.31247724E-04
  0.16520490E-04  0.25624855E-04 -0.34732408E-04  0.13314381E-03 -0.18681112E-04
 -0.26328154E-04  0.14235527E-04 -0.91918689E-06  0.99498145E-07  0.30864659E-05
 -0.68013936E-06  0.50261460E-06  0.52321852E-05  0.53670942E-06  0.59531413E-06
  0.31798984E-05 -0.63776079E-05 -0.19858913E-04  0.80717761E-05  0.12894584E-04
 -0.12181201E-04  0.10875034E-05 -0.14486610E-04  0.18981212E-04 -0.26930779E-06

 -0.26882669E-05 -0.17959572E-05 -0.31036204E-06  0.14626446E-06  0.21443979E-06
 -0.13524708E-05 -0.38074071E-05 -0.40447163E-06  0.51741401E-06 -0.86870047E-06
 -0.58176820E-06  0.24382344E-05  0.12236660E-05 -0.22998029E-05  0.10259319E-05
  0.12478756E-05 -0.67441138E-06 -0.97219251E-07 -0.42485387E-05 -0.16076013E-04
  0.12283000E-04 -0.36750975E-04  0.70499399E-05  0.31576606E-04  0.11081603E-04
  0.37574914E-04  0.91709598E-05  0.15069858E-05 -0.10677396E-05 -0.52286312E-06
 -0.14148400E-05  0.34663085E-06  0.73723403E-06  0.79454982E-06 -0.18109596E-05
 -0.43492049E-05 -0.65900013E-05  0.30062269E-04 -0.18371765E-04  0.62023892E-05
 -0.32373720E-04 -0.16409890E-04 -0.26767999E-05 -0.18249722E-04 -0.19859754E-04
 -0.62918013E-06 -0.78504485E-07 -0.50533074E-06  0.13204679E-06  0.23044436E-05
 -0.68314145E-07 -0.24544840E-06 -0.28028044E-05  0.80188041E-06 -0.21861872E-06
  0.22392063E-05 -0.10175482E-05 -0.14355757E-05  0.29769270E-05  0.52405318E-06
 -0.18163233E-05  0.36729818E-06 -0.71306365E-06 -0.20313365E-06 -0.16982523E-05
  0.30111431E-06  0.35268615E-06 -0.88761506E-06 -0.14791273E-06 -0.20361828E-06
  0.17131012E-06  0.41412723E-06 -0.16784959E-05 -0.11545746E-05 -0.13517151E-05
 -0.16451522E-05  0.14140620E-05  0.16484950E-05 -0.34599391E-06  0.26406592E-05
  0.16224764E-05 -0.99134517E-06  0.47648904E-05  0.33766451E-05  0.39953368E-05
  0.13076103E-04 -0.85171938E-05  0.37235529E-04 -0.23552451E-05 -0.37304801E-05
 -0.32701446E-04 -0.85741694E-04 -0.13080462E-04  0.29511494E-04  0.45000043E-04
 -0.57587068E-04  0.10075231E-04 -0.35732829E-04 -0.13742173E-03  0.24505803E-06
 -0.11680423E-04 -0.14730479E-06  0.48386581E-05 -0.12620846E-04  0.51510686E-05
 -0.18327550E-05 -0.81868042E-06  0.53776521E-05  0.26098571E-05 -0.50781631E-04
 -0.27913769E-04 -0.28812020E-05  0.53138604E-05  0.40537538E-05 -0.53979476E-05
 -0.21966141E-04 -0.35157007E-04  0.12607870E-05 -0.15516650E-06  0.98133976E-06
  0.11881196E-06  0.79248297E-06 -0.53390684E-06 -0.28059351E-05  0.15833218E-05
  0.47033669E-06 -0.34709682E-05  0.82436241E-05 -0.50599940E-05  0.11607666E-05
 -0.20285651E-04  0.42348159E-05  0.55158141E-05 -0.16912547E-05 -0.78189203E-05
  0.48144955E-06  0.22917261E-05 -0.54755190E-06 -0.19663118E-06  0.26616264E-05
 -0.47840274E-06  0.97763134E-06 -0.21798202E-06  0.14344426E-05  0.17557561E-04
  0.12344690E-04  0.49404866E-05  0.47346569E-05 -0.78756059E-05 -0.11954271E-04
 -0.74486183E-05 -0.72964479E-06 -0.11505280E-04  0.12691558E-05  0.49216445E-06
  0.51131841E-06 -0.19297774E-06 -0.47217051E-05  0.79967941E-06 -0.12440011E-05
  0.11736593E-05  0.40395653E-06  0.18201742E-06 -0.20554208E-06  0.78111518E-06
 -0.12277961E-05 -0.30204066E-06  0.10984598E-05 -0.20862158E-05  0.11435179E-06
 -0.33031887E-07 -0.17563800E-07 -0.30931025E-06 -0.22541980E-06 -0.20638232E-07
  0.11257855E-05 -0.51689968E-06 -0.47943135E-06 -0.35518611E-06  0.11198323E-05
  0.10912397E-06 -0.12209852E-05  0.52488164E-06 -0.84658511E-06 -0.96699377E-06
  0.42866617E-06 -0.87549644E-06  0.49908447E-06  0.46041018E-06  0.22131684E-05
  0.16470842E-05  0.27959889E-05 -0.94188094E-06 -0.87675759E-06 -0.55620633E-07
 -0.29217567E-06 -0.64559032E-06 -0.11065016E-05 -0.97765532E-06 -0.24519464E-05
  0.24766070E-04  0.32711560E-05  0.28947270E-04 -0.36323773E-04  0.32422964E-05
  0.10504365E-06  0.21137147E-05  0.25841857E-06  0.83033660E-06 -0.27017311E-06
  0.90575721E-06 -0.91135103E-06 -0.14763080E-06 -0.81207157E-06  0.30931301E-06
 -0.89793900E-06  0.25654861E-05  0.18023039E-04 -0.37419822E-05  0.30893936E-04
  0.60086102E-05  0.44903418E-05  0.71915062E-05  0.10682311E-04  0.32453278E-05

  0.63973993E-06  0.12198582E-05 -0.10968127E-05 -0.81820617E-06  0.66453387E-06
 -0.25352112E-05  0.23841747E-06 -0.46432071E-06  0.19325715E-05  0.82397555E-06
 -0.13186268E-05 -0.37272504E-05 -0.71883592E-06  0.48765723E-07 -0.19117283E-06
 -0.61436674E-06 -0.29117962E-06  0.13866297E-06 -0.78710727E-05 -0.17305840E-04
 -0.87658177E-06 -0.20099387E-04 -0.10016726E-04  0.97707840E-05 -0.55287515E-05
 -0.22444951E-06 -0.14990014E-05 -0.76143232E-06  0.12372980E-05 -0.18759927E-06
  0.29547143E-06  0.28121288E-06  0.29964433E-06 -0.64822202E-06  0.11666852E-05
 -0.22436052E-05  0.39274383E-05  0.14234226E-04 -0.11865008E-04 -0.10438404E-04
  0.25164823E-04  0.16574908E-04  0.31439726E-05  0.91956722E-05  0.15540989E-04
 -0.96106555E-06 -0.59756277E-06 -0.38288801E-06 -0.14209663E-05 -0.97171561E-06
  0.58559777E-06 -0.83222350E-06  0.61595750E-07 -0.79570350E-06 -0.12261452E-06
 -0.18288234E-05  0.45259162E-06 -0.13325834E-05  0.40254698E-06  0.10232356E-05
  0.64291646E-06 -0.44653575E-06 -0.60102183E-06 -0.69083816E-06 -0.43563242E-06
  0.88734155E-07 -0.52755725E-06 -0.99890943E-06 -0.10922207E-05 -0.26949550E-06
 -0.18913994E-05  0.61628362E-06 -0.76970136E-06 -0.11763440E-05 -0.59219371E-06
 -0.89344140E-06  0.77641368E-06 -0.92866922E-06  0.29312717E-05 -0.91686432E-06
 -0.63436682E-06 -0.11379259E-04 -0.10523225E-05  0.16371133E-05  0.60572209E-06
  0.30503863E-05  0.48662565E-05 -0.23552451E-05  0.33563289E-04  0.25977711E-05
  0.44181600E-04 -0.38964795E-04  0.14557256E-03 -0.14597772E-03 -0.49114313E-04
  0.12502563E-03 -0.17163677E-04  0.58454417E-04 -0.44626502E-04 -0.27260324E-06
 -0.65428184E-06  0.10351155E-06 -0.65544064E-06 -0.24179001E-06 -0.18816034E-05
 -0.14197816E-05 -0.23691463E-05  0.44710438E-05 -0.17532200E-04 -0.92886054E-05
 -0.19379539E-04 -0.95462257E-05  0.17891235E-05 -0.12365752E-05 -0.71639421E-05
 -0.13433460E-04 -0.19581892E-05  0.65510342E-06 -0.43536281E-06 -0.61184465E-06
  0.13135628E-05 -0.10381899E-05  0.27359257E-07  0.51466111E-06 -0.11621525E-05
 -0.14640376E-07 -0.60967310E-05  0.66675622E-05  0.16902592E-04 -0.89531666E-06
  0.45893396E-05 -0.12435630E-04  0.11016163E-04  0.11841600E-04 -0.79909300E-05
 -0.27640533E-05  0.21822233E-05  0.72326129E-06 -0.26184410E-05  0.10972335E-05
 -0.24528586E-06 -0.76642740E-06 -0.42218437E-05  0.10417110E-05 -0.45014693E-05
 -0.21916343E-04 -0.44956308E-05  0.17353073E-04 -0.20241034E-04 -0.18914728E-04
 -0.95258164E-05 -0.11896030E-05 -0.34360739E-05  0.41568303E-06 -0.82563203E-06
 -0.91914775E-06  0.20155350E-05 -0.46945092E-06 -0.10287664E-05 -0.66506283E-06
 -0.60997011E-06 -0.28158480E-06 -0.99319492E-06 -0.10774071E-05  0.29938368E-05
 -0.21053112E-06 -0.78497381E-06 -0.16366757E-05  0.35484570E-06 -0.17152771E-05
 -0.52567426E-07  0.21812220E-06 -0.63822524E-06  0.13182674E-05 -0.58121387E-06
 -0.38667799E-06  0.41891447E-06 -0.84840920E-06 -0.37030886E-06 -0.96096571E-07
  0.87750378E-06 -0.47401753E-06 -0.76340547E-06 -0.54717957E-06  0.56154387E-06
 -0.17981249E-05  0.69161817E-06 -0.63322970E-06 -0.73675388E-06 -0.66914921E-07
  0.33830499E-06  0.51711775E-06 -0.10651596E-05 -0.11385349E-05  0.40076684E-06
 -0.12794092E-06 -0.45864710E-06  0.14508558E-05  0.88619092E-05  0.10083247E-04
 -0.23571546E-04  0.66795904E-06 -0.90822848E-05  0.46413696E-04  0.10374415E-04
  0.13261364E-04 -0.17569856E-04  0.13187569E-05  0.26764886E-06 -0.33049409E-06
  0.79778838E-06 -0.49762186E-06  0.24945958E-06  0.17891622E-06 -0.17331966E-07
 -0.12978512E-05  0.10607282E-04  0.12202131E-04 -0.17241699E-05 -0.24546905E-05
  0.33100961E-05  0.92509415E-06  0.16005510E-05 -0.76408443E-05 -0.20480571E-05

  0.12257142E-06  0.20506966E-05 -0.11654921E-05  0.15945054E-05 -0.10771693E-05
 -0.27424175E-05  0.32375315E-07 -0.34628751E-06 -0.30101093E-05  0.21967599E-05
  0.42094149E-05  0.26261404E-05 -0.18569270E-05  0.20177232E-05 -0.71720842E-06
  0.19589216E-06 -0.84943627E-06  0.24964699E-05  0.30180086E-04  0.14138888E-04
  0.11709419E-04  0.68579663E-04 -0.47783020E-04  0.22998000E-04 -0.32878337E-04
  0.32796099E-05 -0.36549087E-05  0.11271920E-05 -0.33145226E-05  0.28622350E-05
 -0.22191246E-06 -0.30781837E-05 -0.13895204E-05 -0.32477451E-05 -0.17069897E-05
  0.18220658E-05 -0.24451678E-04 -0.26370995E-05 -0.18827676E-04  0.66249123E-05
 -0.83677292E-05 -0.30136736E-04 -0.50780618E-05 -0.19117786E-04  0.42836448E-04
 -0.17073136E-05  0.10349212E-05 -0.14864186E-05 -0.10279447E-05 -0.12199417E-05
 -0.24417096E-05  0.13445901E-05 -0.39505264E-06 -0.76840440E-06 -0.15670070E-05
 -0.12136819E-06 -0.11062419E-05 -0.46733611E-06  0.86253893E-06  0.17175699E-05
 -0.22309212E-07  0.45667617E-06  0.11847546E-05  0.43589179E-06  0.78969306E-06
  0.85408322E-06 -0.58751073E-06  0.12340752E-05 -0.32055661E-06  0.69536873E-06
 -0.25257810E-06  0.22358283E-06 -0.55502989E-06  0.41551286E-05  0.51765494E-05
  0.57315627E-05 -0.43499640E-05 -0.63938078E-05  0.11665140E-05  0.12582233E-05
 -0.78583716E-05 -0.16547628E-05 -0.93881410E-05 -0.13018603E-05  0.82850917E-06
 -0.91763990E-05  0.47465322E-05 -0.37304801E-05  0.25977711E-05  0.54736830E-04
 -0.46408589E-04  0.12556271E-03  0.73230373E-04 -0.14306825E-04 -0.71290416E-04
  0.12244631E-03 -0.97278957E-04 -0.54144198E-04  0.17679968E-03  0.98029966E-06
  0.58744482E-06  0.30772981E-05 -0.16980778E-07  0.57639669E-05 -0.87718620E-05
  0.36820035E-05  0.58191076E-05  0.52979458E-05  0.39265353E-04 -0.34278601E-04
 -0.36084223E-04 -0.31037278E-04  0.24022597E-04  0.11254934E-04  0.73968169E-05
  0.10418633E-04  0.30145340E-05  0.31863054E-05  0.55617252E-06  0.10042411E-05
 -0.20858670E-05 -0.76944924E-06  0.80267625E-05 -0.15605264E-05 -0.21047841E-05
 -0.55006281E-05 -0.33619991E-05  0.15908860E-04 -0.17437556E-04 -0.37513370E-04
  0.28016406E-04 -0.62349385E-05  0.20435639E-04  0.54016250E-05 -0.54689219E-04
  0.52531245E-06  0.55109823E-06  0.18310332E-05  0.60780165E-06 -0.31519168E-05
  0.14154293E-05 -0.12305211E-05  0.46826533E-06 -0.10889640E-05 -0.31013357E-05
 -0.35467681E-05  0.23669173E-04 -0.57056222E-05  0.18868239E-04 -0.70168532E-05
 -0.86181318E-05 -0.36785447E-05 -0.65152000E-05  0.48083358E-07 -0.65840853E-06
  0.36468593E-05 -0.38720844E-06  0.14335190E-05 -0.22871937E-05  0.94502466E-07
 -0.16709269E-05 -0.44261032E-05 -0.59577592E-06 -0.35450809E-05 -0.11302705E-05
 -0.22790666E-05  0.40678902E-05  0.15431265E-05  0.51160585E-06  0.22507085E-06
 -0.13571610E-05  0.50766879E-06 -0.17026611E-05 -0.13676738E-05 -0.21858138E-05
  0.30978274E-06  0.18158172E-05  0.86057017E-06  0.14435171E-06  0.20203481E-06
  0.14909823E-05  0.14052052E-05  0.10910005E-06  0.38304769E-06  0.42514257E-05
 -0.47243905E-06  0.12650403E-05 -0.12876895E-06  0.79394855E-06  0.18925059E-05
 -0.49832751E-06  0.23786041E-05 -0.97430667E-06  0.23056085E-06 -0.76149640E-06
  0.20498961E-05 -0.22896449E-05  0.28070391E-05  0.65586371E-05 -0.12155698E-04
  0.15856022E-04 -0.39707054E-05  0.87491921E-06 -0.42909902E-06  0.83267188E-05
  0.11475646E-04 -0.13968736E-04 -0.22218110E-06  0.37359301E-08  0.25348987E-06
  0.70118915E-06 -0.84302758E-06  0.96972289E-06  0.52445278E-06  0.50117893E-06
  0.16182049E-05 -0.14295642E-04  0.92023043E-05  0.10260027E-05 -0.13159531E-04
  0.37524579E-05  0.15981904E-04  0.15356627E-04  0.20808740E-04 -0.14712799E-05

  0.98840162E-05 -0.11137604E-04 -0.54293741E-05  0.10104485E-04 -0.75530541E-05
  0.72237043E-07 -0.24728545E-07  0.11163602E-04 -0.17054222E-04 -0.35302607E-05
 -0.45175348E-05 -0.11980163E-04  0.10748276E-05 -0.12935389E-05  0.13055875E-05
 -0.65716808E-05  0.13138486E-04 -0.63301945E-05 -0.10204057E-03 -0.80803721E-04
  0.78649287E-04 -0.86200363E-03  0.20884030E-03  0.40189514E-03 -0.18741210E-04
  0.91356955E-04 -0.45741330E-04  0.29762244E-05  0.40053796E-06 -0.72637824E-05
 -0.16419369E-04  0.27493413E-05 -0.71670859E-05 -0.11377468E-04 -0.86247709E-05
  0.80520032E-05 -0.15637003E-03 -0.14427244E-03 -0.11398320E-03 -0.15624647E-03
  0.16317078E-03  0.10363118E-03  0.73998670E-04  0.46504536E-04  0.15894838E-03
  0.18109455E-05 -0.25961022E-05 -0.65059062E-05  0.19545523E-04  0.85948222E-06
 -0.11964066E-04  0.75992357E-05  0.10366102E-04  0.21153190E-05 -0.16098643E-04
 -0.47440276E-05  0.43627929E-05  0.41175300E-05 -0.12622018E-04  0.85885408E-05
  0.19540348E-05 -0.44675356E-05 -0.20590282E-05 -0.16869681E-05  0.52841335E-05
 -0.14409803E-04 -0.14350451E-05 -0.63694609E-05 -0.52509288E-05 -0.46267182E-06
 -0.10534929E-05 -0.10987444E-05 -0.25795475E-05 -0.33714976E-05 -0.49966746E-05
 -0.14059710E-04 -0.83162396E-06  0.32032926E-04 -0.65828673E-05 -0.41076505E-05
  0.25459574E-07 -0.39762130E-04  0.35869077E-04 -0.14264019E-03 -0.12812154E-03
 -0.50907363E-04  0.14340450E-03 -0.32701446E-04  0.44181600E-04 -0.46408589E-04
  0.23213973E-02 -0.38706608E-03 -0.52691588E-03 -0.32063396E-03  0.41144018E-03
  0.31675012E-04  0.54513565E-04  0.93973928E-03 -0.22718645E-03  0.14087918E-04
  0.52610080E-04 -0.14773695E-04  0.18223525E-04  0.17620823E-04 -0.69483517E-05
  0.19722625E-04 -0.36124599E-05 -0.28135417E-04 -0.20502432E-03  0.28581181E-03
  0.27442880E-03 -0.95542250E-04 -0.12115290E-04 -0.12290597E-03  0.32658567E-04
  0.16037027E-03  0.25354775E-03 -0.11625509E-04  0.49324379E-05  0.19575505E-04
 -0.48860166E-05  0.22788911E-04 -0.13717188E-04 -0.23174405E-05 -0.87613172E-05
 -0.22827788E-05 -0.16353404E-03 -0.85042987E-04 -0.32345851E-04  0.11550443E-03
  0.33424248E-03 -0.22700962E-04 -0.27315800E-03  0.48045774E-04 -0.92295464E-05
 -0.67638080E-06 -0.12461586E-04 -0.11200220E-05  0.30978824E-04 -0.11744330E-04
 -0.31759880E-04 -0.69012739E-05  0.80298081E-05  0.41290582E-05 -0.34213194E-04
  0.73025090E-04 -0.80058000E-04  0.61796334E-04 -0.21326433E-03  0.16882061E-03
  0.57325499E-04 -0.22522515E-03 -0.15499701E-03  0.19486597E-04  0.43827008E-05
 -0.80355743E-05  0.12245613E-04  0.25240212E-04 -0.20966335E-04 -0.66149671E-05
 -0.59577459E-05 -0.33184088E-06  0.42388901E-05  0.14280043E-04  0.17914837E-04
 -0.82741579E-05  0.19186069E-04 -0.82957326E-05 -0.30263656E-05 -0.16035006E-04
  0.52318767E-05 -0.29122758E-05  0.12794566E-04  0.11308779E-04  0.21125501E-04
 -0.17163536E-04 -0.32167502E-05  0.19772485E-05  0.34676713E-05  0.53775188E-05
  0.72843945E-06 -0.22402341E-06  0.20607267E-04  0.49789474E-05  0.48217889E-05
 -0.11997410E-04 -0.14418950E-05 -0.64092590E-05 -0.22410246E-05 -0.57948451E-05
 -0.64737836E-05 -0.40583778E-05 -0.16375583E-04  0.88781834E-05 -0.44637212E-05
  0.10793843E-05 -0.27359484E-05  0.16417444E-04  0.47865168E-04 -0.35169999E-04
 -0.63984266E-04  0.36473845E-04  0.98257515E-05  0.19475960E-03 -0.11711348E-03
  0.50012776E-04  0.22412285E-03 -0.13338287E-04 -0.98692483E-05  0.12444188E-04
  0.17480825E-05  0.20169893E-05  0.14169778E-04  0.60206173E-05  0.55540899E-05
  0.65482736E-05 -0.23023670E-03 -0.13425409E-03  0.19163645E-03  0.31898404E-04
 -0.95209238E-04 -0.10299133E-03  0.32544114E-04 -0.16214002E-03  0.96817538E-05

  0.12835639E-04 -0.16363868E-04  0.24862317E-04 -0.16864097E-04 -0.21338738E-04
  0.93072040E-05  0.13765343E-04 -0.10186151E-04 -0.56881647E-05 -0.11270227E-04
  0.40335017E-04 -0.43659571E-05  0.16922196E-04 -0.68283810E-06 -0.16838716E-05
 -0.27404691E-04 -0.14667929E-04 -0.13271741E-04  0.30998194E-03  0.57912552E-04
 -0.16155778E-03  0.30251728E-03  0.23119498E-03 -0.25904553E-03  0.30996398E-03
 -0.11843735E-03  0.18052144E-04 -0.31561972E-05 -0.66840655E-05  0.96447193E-05
  0.11611909E-04  0.34679139E-06  0.18785362E-04 -0.50708031E-05  0.12010154E-04
  0.36842991E-04  0.15836549E-03 -0.21005646E-03  0.20596758E-03  0.18723386E-03
 -0.13768742E-03 -0.73823161E-04 -0.24258710E-04  0.23389370E-03  0.15795069E-03
  0.16253671E-04  0.26514170E-04  0.70921548E-06 -0.66272743E-06 -0.54724851E-05
 -0.12781068E-04 -0.57900453E-05 -0.21401738E-05 -0.31658274E-04 -0.24748488E-04
 -0.19245227E-04 -0.18127028E-04  0.73523271E-05 -0.12002653E-04 -0.77426196E-05
  0.28408758E-05 -0.26739881E-05  0.20106225E-05 -0.11357857E-04  0.16105846E-04
  0.63911540E-05  0.11767283E-05  0.42827753E-04  0.88149598E-05 -0.67987728E-05
  0.77960615E-05 -0.11286990E-04 -0.93676188E-05 -0.11411243E-04  0.47632165E-04
  0.19323093E-04 -0.46197276E-04 -0.16077922E-04  0.12060038E-04 -0.68955651E-05
 -0.10609283E-04  0.50902469E-04 -0.96344278E-04 -0.42159810E-04 -0.69323287E-05
 -0.71247723E-04  0.50193166E-04 -0.85741694E-04 -0.38964795E-04  0.12556271E-03
 -0.38706608E-03  0.42527110E-02 -0.28645406E-03  0.24723918E-03  0.15642203E-03
  0.13872497E-03 -0.39793959E-03 -0.18355907E-03  0.98807795E-03  0.11085179E-04
 -0.12332652E-04 -0.60959187E-05  0.33135453E-05  0.78105922E-04 -0.45172077E-04
  0.25350352E-04  0.18251995E-04 -0.68968002E-05  0.41442764E-03 -0.98096070E-05
 -0.23629835E-03 -0.18953256E-03 -0.34007231E-04  0.41113925E-03  0.19522185E-03
  0.10585032E-03 -0.27224795E-03 -0.31588714E-04 -0.44947085E-04 -0.15394764E-04
 -0.13702829E-04  0.19806231E-04  0.25251277E-04  0.11800989E-04 -0.14541052E-04
  0.28150306E-05  0.25931885E-03 -0.75905560E-03  0.12277519E-04  0.25857844E-03
 -0.18370664E-03 -0.90773128E-04  0.19849058E-03  0.15879559E-03  0.27522662E-03
 -0.15772066E-04 -0.77645188E-05 -0.17536271E-04  0.41715483E-06 -0.11207774E-04
 -0.73475093E-05 -0.70604787E-05  0.41521644E-05 -0.19210096E-04  0.88162766E-04
  0.75068601E-04 -0.14425694E-03 -0.23862069E-03  0.12097438E-02 -0.71388137E-04
 -0.10987580E-03  0.70999770E-04  0.37278395E-03  0.22582298E-04  0.29194302E-04
  0.63752632E-05 -0.55997894E-05 -0.27968211E-05  0.65650815E-05  0.30932839E-04
  0.11458708E-05 -0.24671791E-05 -0.15869529E-04 -0.35886606E-04 -0.23598242E-04
 -0.63992854E-05  0.32388568E-04  0.10167783E-04  0.19650858E-05  0.81677809E-05
 -0.12184483E-04  0.14086168E-04 -0.17161942E-04  0.33211684E-05 -0.75010312E-06
 -0.31755740E-05  0.14067627E-04 -0.18995122E-04  0.21752828E-05 -0.32630241E-04
 -0.51306995E-05  0.17810130E-04 -0.57372539E-05 -0.45580772E-05  0.27419092E-04
 -0.51300793E-05  0.46812164E-07 -0.12765892E-04  0.12357760E-04  0.24501914E-06
  0.47757500E-05 -0.37924824E-04  0.62486196E-06 -0.36152524E-04  0.14236153E-04
 -0.15327894E-04  0.45747053E-05 -0.33789071E-05 -0.23433488E-03  0.14883465E-03
  0.33030764E-04 -0.48864151E-04 -0.68187251E-04 -0.54554261E-03 -0.12213594E-03
  0.18136237E-03  0.19266004E-03 -0.89521734E-06  0.31727216E-04  0.24165626E-04
  0.10864567E-04  0.83651524E-07  0.60454801E-05 -0.67556653E-05 -0.85832149E-05
 -0.35265483E-05 -0.18673978E-04 -0.53325199E-04 -0.53532851E-03 -0.25313133E-03
  0.46620987E-04  0.25367121E-03 -0.22818387E-04  0.14057160E-03  0.77634724E-05

  0.73512775E-05  0.14961713E-04  0.22342321E-04 -0.80094285E-05 -0.42742431E-05
  0.10857717E-05 -0.52546853E-05 -0.11393461E-04  0.18876873E-04  0.12821637E-04
  0.77464719E-05 -0.46314550E-04 -0.10873331E-04 -0.76392726E-05  0.18121774E-04
  0.96169890E-06 -0.64204935E-05 -0.35122613E-05 -0.71744188E-04 -0.50649468E-04
 -0.18650513E-03  0.94400512E-03 -0.26726829E-03 -0.44098915E-03  0.88534151E-04
 -0.89317475E-04  0.15587171E-04 -0.14568288E-04  0.44087956E-05  0.22515973E-05
 -0.91511254E-05 -0.80329425E-06 -0.68038434E-05  0.10147120E-04  0.32456896E-05
 -0.87159057E-05  0.23836203E-04  0.16618808E-03 -0.88094942E-04  0.95244431E-04
  0.18755455E-03  0.58107481E-04  0.72074424E-04  0.18118147E-03  0.44445338E-04
 -0.90886980E-05 -0.16899586E-05  0.83914075E-05 -0.12809072E-04  0.60500158E-05
  0.66434326E-06 -0.51625098E-06  0.71597356E-05  0.90817827E-05 -0.66324912E-07
 -0.76617638E-06 -0.18116203E-04 -0.78387860E-05 -0.49267552E-05  0.91680905E-05
  0.98599488E-05  0.38623674E-05  0.77718865E-05 -0.16045619E-04 -0.10094135E-04
 -0.81403291E-05 -0.52827964E-05 -0.44088912E-05 -0.42741482E-04  0.19480059E-05
 -0.15925137E-04  0.33654821E-05  0.11578836E-04  0.35465080E-04 -0.81863859E-05
  0.11062263E-04 -0.41700503E-05 -0.42931829E-04  0.23103927E-05  0.10472056E-04
 -0.25386369E-04 -0.15871077E-03 -0.72937626E-04  0.17916229E-03  0.86607063E-04
  0.10409110E-03 -0.18666757E-04 -0.13080462E-04  0.14557256E-03  0.73230373E-04
 -0.52691588E-03 -0.28645406E-03  0.43008399E-02 -0.93778278E-03 -0.95900785E-03
  0.15440999E-02 -0.52002988E-04 -0.62143792E-03  0.92066446E-04 -0.46777763E-04
 -0.59075970E-04 -0.11746004E-04 -0.15696661E-04 -0.57747236E-04  0.30154403E-04
 -0.29690213E-04  0.83605409E-05  0.44573141E-04  0.38414924E-04 -0.27873295E-03
 -0.15772365E-03  0.19680690E-03 -0.93408434E-04  0.48273508E-03  0.13027652E-03
  0.63490009E-04 -0.15520971E-03  0.13218645E-04  0.45213300E-04 -0.22916691E-04
 -0.71666721E-05 -0.51093826E-05  0.12577069E-04  0.15033842E-05  0.43012275E-05
 -0.13996557E-06 -0.95307129E-04  0.16979592E-03 -0.35355379E-04 -0.35786876E-03
  0.12380112E-03 -0.11319380E-03  0.21778734E-03  0.16395005E-03 -0.28378554E-03
 -0.74405777E-05 -0.45351814E-05  0.37830610E-04 -0.25907579E-04  0.48793090E-05
 -0.32411598E-05 -0.17088196E-06 -0.21783837E-04 -0.91752484E-06 -0.22316221E-03
 -0.14338347E-03  0.14217209E-03  0.23112416E-04  0.28555542E-04 -0.39585061E-03
 -0.94151265E-04  0.70359111E-04 -0.15313876E-04 -0.45565319E-05 -0.29536206E-06
  0.22483646E-04  0.76797620E-05 -0.21518477E-04 -0.22155043E-04 -0.64341294E-06
 -0.17649807E-04 -0.81654111E-05 -0.66114702E-05 -0.82192543E-07 -0.48321226E-05
 -0.11961008E-04 -0.21203164E-04 -0.19509909E-04  0.37616926E-06 -0.23822322E-05
  0.89283558E-05  0.16062938E-04  0.67971354E-05  0.67768117E-05 -0.17644441E-04
 -0.67579164E-05  0.25395156E-04 -0.34901919E-05  0.78812153E-05 -0.12950481E-04
  0.18908423E-04 -0.69132289E-05 -0.20671333E-04 -0.86220171E-05 -0.39867744E-05
 -0.22919491E-04  0.95519005E-05 -0.10411087E-04 -0.48368397E-05 -0.22679388E-05
  0.36096026E-05  0.55891865E-05  0.11815724E-04 -0.42677055E-05 -0.23999586E-04
 -0.17795258E-05 -0.36105476E-05  0.56974646E-05  0.41994455E-04 -0.59189520E-04
 -0.37993699E-03 -0.25433870E-03  0.34572570E-04  0.11202447E-02  0.26580192E-03
 -0.63878239E-04  0.24312741E-03  0.20855649E-04  0.69229910E-05 -0.11869291E-04
 -0.14170288E-04 -0.15624585E-04  0.21840233E-04 -0.57544181E-06  0.95850565E-05
 -0.80033977E-05  0.12990875E-03  0.16449170E-03 -0.50259036E-04 -0.26237919E-03
  0.62398518E-04 -0.45263411E-03  0.11424279E-03 -0.88968737E-04  0.26220179E-03

 -0.15866368E-05 -0.10925469E-04 -0.36406942E-06  0.16293557E-04  0.20943809E-05
 -0.14044688E-04 -0.20789620E-04 -0.27651811E-05 -0.74234894E-05  0.22408553E-04
 -0.92995287E-05  0.15791457E-04  0.28039895E-04 -0.16525990E-04 -0.23953027E-04
  0.90291945E-05  0.65156163E-05 -0.12284437E-04 -0.10016070E-03 -0.14917182E-03
 -0.48455279E-04 -0.14879105E-03  0.50078057E-04  0.95557947E-04  0.33007963E-03
  0.11266016E-03  0.21743026E-03  0.28389061E-05 -0.83995047E-05  0.30148327E-06
  0.17562156E-05  0.65207541E-05  0.24224371E-04  0.35881216E-05 -0.35291556E-05
  0.13313669E-04 -0.15967597E-04 -0.62555208E-04  0.48541197E-04  0.28629205E-03
 -0.26015870E-03  0.21371511E-03  0.12267587E-03  0.12053172E-03  0.15713767E-03
 -0.12232867E-04 -0.18308913E-04  0.11566214E-04 -0.45526970E-05  0.67092115E-07
  0.12990138E-04 -0.40521699E-05 -0.82564859E-06  0.25227558E-05 -0.72314943E-05
  0.65920549E-05 -0.54150181E-05 -0.98018720E-06 -0.43682562E-05 -0.16253276E-05
  0.94820879E-07 -0.25674819E-05 -0.67258785E-06  0.27184690E-04 -0.11123042E-05
  0.12254101E-05 -0.39061747E-04  0.90704705E-05  0.25069006E-04  0.15572616E-05
  0.26529949E-08 -0.13868718E-05 -0.20155933E-04 -0.30858014E-04 -0.60658941E-05
  0.57206668E-05  0.37839837E-04 -0.11504541E-04  0.93100575E-05  0.13177145E-04
  0.30875230E-04  0.18879622E-03  0.22846791E-04 -0.17763268E-04  0.13653020E-04
 -0.16079647E-04 -0.76972312E-04  0.29511494E-04 -0.14597772E-03 -0.14306825E-04
 -0.32063396E-03  0.24723918E-03 -0.93778278E-03  0.45771254E-02 -0.12531728E-02
 -0.31780686E-02 -0.27759975E-03 -0.63655207E-03  0.11511928E-03 -0.11008010E-04
 -0.60909727E-05  0.10676710E-04 -0.85470843E-05  0.58508481E-06  0.94692273E-05
  0.19842100E-04 -0.17091423E-05  0.34619423E-05 -0.14443774E-03  0.28515496E-04
 -0.39084932E-04 -0.18237143E-03  0.40663134E-04 -0.18822815E-03  0.82787466E-04
  0.63485690E-04  0.91999540E-04  0.62302221E-05 -0.24564824E-05 -0.11365336E-05
  0.46151378E-04 -0.41362145E-04 -0.79261878E-05  0.62328901E-05  0.24291053E-04
 -0.19960430E-05 -0.21742663E-04  0.13690348E-03 -0.15120973E-04 -0.52145279E-04
  0.26316281E-03  0.73404393E-05 -0.13681841E-03 -0.11970658E-04  0.12189719E-04
  0.57979781E-05 -0.11199968E-05 -0.23739198E-04  0.21078474E-04 -0.30133951E-04
 -0.19920353E-05  0.11595170E-04 -0.85665694E-05  0.10919477E-05 -0.16145889E-03
  0.50095818E-04 -0.43108006E-04  0.30594144E-04  0.21937453E-03 -0.38727943E-04
 -0.46124317E-04 -0.11358650E-05  0.68904614E-04 -0.35308727E-04 -0.17922949E-04
 -0.72370318E-05 -0.10903658E-04 -0.11506914E-06  0.84457478E-05  0.37879498E-05
 -0.11685337E-05  0.49912279E-05  0.12468124E-04  0.26123229E-04  0.57898970E-05
  0.10439131E-04  0.24585793E-05  0.13970129E-04  0.16160810E-04  0.35673431E-05
 -0.70500630E-05  0.96412791E-05  0.10644264E-04 -0.84890856E-05 -0.27905045E-04
  0.34188119E-04 -0.15200828E-05  0.14891280E-04 -0.91470714E-05  0.13584980E-04
  0.99638218E-05 -0.16695754E-04  0.37083543E-05  0.20895932E-04 -0.12424047E-04
  0.14553197E-04 -0.90407007E-05  0.49524727E-07 -0.16450080E-05 -0.11238056E-04
 -0.23540680E-04  0.58198550E-05  0.14407965E-04 -0.27037306E-04  0.24754815E-04
  0.24056586E-04  0.21826114E-04 -0.28045034E-05 -0.55711340E-04  0.11425068E-04
 -0.39977719E-03 -0.11307807E-03 -0.21611389E-03  0.11254712E-03  0.44816501E-04
  0.12207084E-03  0.83770398E-04  0.12472382E-04 -0.95928477E-05  0.13883685E-04
  0.10527012E-04  0.16053212E-04 -0.14833865E-04  0.19353452E-05 -0.71232275E-06
  0.19662619E-05 -0.47679114E-04  0.13544302E-03  0.45311542E-04  0.45908825E-03
 -0.77552015E-04 -0.93959584E-04  0.64142651E-04 -0.89516858E-04 -0.13822910E-03

  0.95251434E-05  0.23542708E-04  0.70334292E-05  0.76502920E-05 -0.31096339E-04
  0.15742800E-04 -0.87450088E-05  0.10888758E-04 -0.20617100E-06 -0.27536617E-04
  0.52079849E-04 -0.15321515E-05 -0.84893468E-05  0.64943725E-04 -0.20473122E-04
  0.99986696E-05 -0.65944982E-05 -0.93701214E-08  0.48254303E-03  0.30187029E-03
  0.45016785E-03  0.30628425E-03  0.16293314E-03  0.44631030E-04  0.19289218E-03
  0.19962609E-03 -0.38574184E-03  0.50670039E-05  0.32181830E-05 -0.30964160E-04
  0.24712704E-04 -0.47330428E-04  0.13029965E-04 -0.27222886E-04  0.17917631E-04
 -0.18618410E-04  0.11509776E-04  0.19707837E-03  0.22137321E-03 -0.14729166E-03
  0.33288244E-03 -0.19351587E-03  0.41801603E-04 -0.12565091E-03 -0.11588762E-04
  0.31557658E-04  0.33048657E-04 -0.15110414E-04  0.21584153E-05  0.63601161E-04
  0.33170526E-05  0.27466585E-04 -0.10576420E-04 -0.15528051E-04 -0.63590462E-05
  0.12568371E-04 -0.15895670E-05  0.14428280E-04 -0.14222342E-04  0.66001672E-05
 -0.24021998E-04 -0.71165433E-05 -0.11295200E-04 -0.11891445E-04 -0.18492699E-04
 -0.48942679E-05  0.33960219E-04 -0.41954465E-05  0.34782951E-05 -0.23780584E-05
  0.50963678E-06 -0.17170642E-05  0.85031193E-06  0.62947447E-05 -0.71617604E-05
  0.42430341E-05 -0.92987996E-04  0.48523406E-04 -0.27816749E-04 -0.15640255E-04
  0.15094812E-05  0.76411747E-04  0.73684263E-04 -0.13471617E-03 -0.53316657E-04
 -0.11644928E-03  0.64371456E-04  0.45000043E-04 -0.49114313E-04 -0.71290416E-04
  0.41144018E-03  0.15642203E-03 -0.95900785E-03 -0.12531728E-02  0.73534477E-02
 -0.19017713E-02 -0.66317928E-03  0.83936243E-03 -0.29792774E-03 -0.15474262E-04
  0.68885380E-04 -0.23130609E-04 -0.16973957E-04  0.61178435E-04  0.27710820E-04
  0.57997984E-05  0.69199496E-05 -0.44051969E-04  0.65450726E-03 -0.13354075E-03
 -0.18326860E-03 -0.34410776E-04  0.15276098E-03  0.82106647E-03  0.76637281E-04
  0.97859942E-04  0.99836056E-04 -0.54647413E-04  0.51538500E-05  0.11133224E-05
 -0.18246758E-04  0.95805728E-04 -0.11773676E-04 -0.11572956E-04 -0.19585277E-04
 -0.42179552E-04  0.35299562E-03 -0.11391831E-02 -0.12008159E-03  0.39169735E-03
 -0.83802923E-03  0.34698533E-03  0.27354759E-03 -0.90228486E-04 -0.28691785E-03
  0.78837825E-05 -0.25687695E-04 -0.52493041E-05  0.18524823E-04 -0.22138188E-05
  0.25884016E-04 -0.75184472E-06  0.40096093E-05 -0.41934013E-06  0.84098255E-04
  0.18941892E-03  0.27010329E-03 -0.16197550E-04 -0.53291460E-03  0.25308271E-03
 -0.12321663E-03  0.16072461E-03  0.32680950E-03  0.15992635E-04  0.61645394E-04
 -0.97929850E-05  0.33484495E-05  0.67426728E-04 -0.35347755E-04  0.29988116E-04
  0.82597452E-05 -0.19134021E-05 -0.17366231E-04 -0.50010589E-04 -0.22189376E-04
 -0.49939330E-07  0.15505300E-04  0.13494922E-04 -0.30376667E-04 -0.11383471E-05
  0.71860428E-05  0.21246486E-05 -0.11613445E-04  0.66990867E-05  0.29824331E-04
 -0.37350401E-04  0.18488492E-06  0.82789117E-05  0.17690057E-04  0.30100406E-05
 -0.15635461E-05 -0.50938555E-05 -0.11672753E-05 -0.12584585E-04  0.12147335E-04
 -0.17360320E-04 -0.25470920E-05  0.30495453E-05  0.32790870E-04  0.19262248E-04
 -0.32453781E-05 -0.29546776E-04 -0.58704849E-05  0.54353412E-04 -0.68448008E-06
  0.17271945E-04 -0.12512488E-04 -0.23232830E-04 -0.35227422E-03  0.59080430E-04
  0.79144676E-03 -0.88413393E-04  0.73217522E-03 -0.67636530E-03 -0.15183831E-03
 -0.53229252E-04 -0.45027332E-04 -0.12961467E-04  0.10147812E-04  0.23694865E-05
  0.83857236E-05 -0.52404724E-04  0.23487952E-04 -0.14430608E-04  0.41127202E-05
  0.12834569E-04 -0.38708366E-04  0.14164949E-04 -0.53197915E-03 -0.46901710E-03
  0.31116857E-04  0.63325080E-03 -0.13976010E-03  0.16035712E-03 -0.20090081E-03

 -0.17376380E-04  0.33908060E-04  0.35243701E-04 -0.13206797E-04 -0.76126892E-05
 -0.30383531E-04  0.15575204E-04 -0.19917200E-05  0.30772765E-04  0.21421476E-04
 -0.16948084E-04  0.24451567E-04 -0.39891286E-04 -0.13729363E-04  0.79446976E-04
 -0.18420778E-04 -0.23096777E-04 -0.12487315E-04  0.16766403E-03 -0.11151869E-03
 -0.11567639E-03 -0.62830496E-03 -0.18879662E-03  0.39470396E-04 -0.35818697E-03
 -0.45005288E-03 -0.12010741E-03 -0.50895757E-05  0.23357330E-05  0.55985765E-04
  0.21863546E-04  0.32461458E-05 -0.96054074E-04  0.83525188E-05 -0.70390347E-05
 -0.94369244E-05  0.14746800E-04  0.17301382E-04 -0.35759120E-03 -0.11408477E-04
  0.28838826E-03 -0.91921497E-04  0.18653349E-03  0.23842917E-03  0.70345250E-05
 -0.33245098E-04 -0.14044827E-05  0.67075360E-05 -0.46461992E-05 -0.76633623E-05
 -0.44064160E-04 -0.42461506E-05 -0.32456450E-05 -0.35223158E-05  0.48432419E-05
 -0.74665148E-05  0.14139186E-04 -0.59304408E-05  0.24242248E-04 -0.11372380E-04
  0.92979491E-05  0.11849726E-04 -0.53590163E-05 -0.38147128E-05  0.11523908E-04
  0.18463576E-04 -0.35074276E-05  0.22977946E-04 -0.80312889E-04 -0.57864992E-05
 -0.12569695E-04  0.11695522E-04  0.23565747E-04  0.49766779E-04  0.52234420E-04
  0.15805903E-04 -0.56786289E-04  0.98312564E-05 -0.33257518E-05  0.22948795E-04
 -0.83584272E-04 -0.25390373E-03 -0.92809205E-04  0.61796368E-04 -0.36389715E-05
  0.13831649E-04  0.23497781E-03 -0.57587068E-04  0.12502563E-03  0.12244631E-03
  0.31675012E-04  0.13872497E-03  0.15440999E-02 -0.31780686E-02 -0.19017713E-02
  0.10399802E-01  0.61963705E-04 -0.51167616E-03  0.14913613E-03 -0.39962496E-05
 -0.37694389E-04  0.27940246E-04 -0.33476445E-05 -0.15000139E-04  0.37952973E-07
 -0.81863033E-05 -0.68087423E-05 -0.37334987E-04 -0.49595237E-04 -0.12863410E-03
  0.18457565E-03 -0.68387627E-03  0.27957120E-03 -0.19193584E-03 -0.64701254E-04
  0.30856321E-03 -0.33203800E-03  0.29178750E-05  0.10770506E-04  0.27090817E-04
 -0.36895112E-04  0.31376693E-04 -0.12699226E-04  0.19949142E-04 -0.10580716E-05
  0.26076559E-04  0.41525868E-04 -0.31683960E-04  0.14651250E-03 -0.13063746E-03
 -0.19867954E-03 -0.51333595E-03  0.23616521E-03  0.13981623E-03  0.36051796E-03
 -0.68631412E-05  0.40483737E-04  0.50616984E-04 -0.19352715E-04  0.42291060E-04
 -0.47798031E-04 -0.23287619E-04  0.48805538E-04 -0.10605156E-04  0.11075189E-03
 -0.87616207E-04 -0.68598680E-03  0.12892178E-03 -0.67441531E-04 -0.84832295E-03
 -0.33070200E-04 -0.19295209E-03 -0.45138564E-03 -0.89503535E-05 -0.10486214E-04
  0.41786095E-04 -0.13645253E-04 -0.23736803E-05  0.17984268E-04 -0.11077211E-06
 -0.19930472E-04 -0.27366493E-05 -0.75919889E-05 -0.26361227E-04  0.13232806E-04
 -0.16231175E-05 -0.20189411E-04 -0.15216870E-04 -0.11271515E-04  0.78832657E-05
  0.25787793E-04  0.19943236E-04 -0.44277111E-05 -0.45753548E-05 -0.68462566E-05
 -0.17850960E-04  0.39027655E-04 -0.13782754E-04 -0.26902091E-04 -0.83147050E-05
  0.25540430E-05  0.32328951E-04 -0.29847897E-04 -0.45855138E-05  0.73200537E-05
  0.18368780E-04  0.10296947E-04 -0.25946917E-04  0.11450291E-04 -0.32842446E-04
 -0.41545087E-04 -0.66442829E-05 -0.17160488E-04  0.20405087E-04 -0.48134778E-04
 -0.17271778E-04 -0.18707076E-04 -0.18138453E-04  0.86118777E-04 -0.34642951E-03
  0.14000483E-03 -0.18336447E-03  0.20361892E-03 -0.12581832E-02  0.31939558E-04
  0.40240894E-03 -0.43349913E-03 -0.14333816E-04  0.11805223E-04 -0.39630123E-04
  0.55326225E-05 -0.33694750E-04  0.32060827E-04 -0.10197558E-04  0.10581145E-04
 -0.42300897E-06  0.12607148E-04 -0.12466945E-03  0.19864477E-03  0.55026721E-04
  0.45508872E-04 -0.42574245E-03  0.39737436E-04  0.22310044E-03  0.41815817E-04

  0.40962046E-05 -0.35086623E-05 -0.70001389E-05 -0.16819304E-04 -0.16957307E-04
  0.22296559E-04 -0.17908985E-05  0.25019011E-05  0.35188304E-05  0.38475173E-05
 -0.48401996E-05  0.15181978E-04 -0.60913971E-05 -0.16101921E-04  0.90368358E-05
  0.17117641E-04  0.17649584E-04 -0.27844262E-05 -0.51504855E-03 -0.18595301E-03
 -0.16586992E-03  0.61591069E-04 -0.27781473E-04 -0.32735138E-04 -0.11016068E-03
  0.37094681E-04 -0.96518351E-05 -0.15832071E-05  0.14002199E-04  0.61008448E-05
 -0.12049117E-04  0.22126869E-04 -0.68098520E-05  0.41417942E-05 -0.52618808E-05
  0.81825823E-05  0.56230134E-04  0.13471593E-04 -0.90907643E-05 -0.17192052E-03
  0.52114938E-04  0.29478394E-03  0.27243905E-04  0.75977278E-04 -0.14776201E-04
  0.19413697E-05 -0.94090033E-05  0.84647545E-05  0.71182656E-05  0.15969230E-05
 -0.46277495E-05 -0.59216158E-05  0.59332234E-05  0.79699777E-05 -0.14622391E-05
 -0.17865870E-04  0.58745542E-06 -0.31449868E-05 -0.10733265E-04 -0.52415930E-05
 -0.16614036E-04  0.29119985E-05 -0.12757457E-04 -0.97421664E-05 -0.81302647E-05
 -0.15703308E-04 -0.13744217E-04  0.82829380E-06 -0.17320322E-05 -0.34721672E-05
  0.60743929E-06  0.16451977E-06  0.77696251E-05 -0.19520860E-04 -0.86092092E-05
 -0.11899010E-04 -0.43306763E-05  0.65383978E-06 -0.98665782E-05  0.98538807E-06
  0.10671578E-05 -0.19107301E-05  0.72613536E-04  0.63710591E-04  0.15421101E-04
  0.10610959E-03 -0.76406504E-04  0.10075231E-04 -0.17163677E-04 -0.97278957E-04
  0.54513565E-04 -0.39793959E-03 -0.52002988E-04 -0.27759975E-03 -0.66317928E-03
  0.61963705E-04  0.24575682E-02 -0.29566813E-03 -0.75274389E-03 -0.81859923E-05
 -0.15150935E-04 -0.25507883E-06  0.25219297E-04 -0.60651819E-04  0.48127187E-05
 -0.23695740E-04  0.64655762E-05  0.25502787E-05 -0.20757710E-04 -0.19084784E-04
 -0.90760174E-05 -0.41323063E-03 -0.12938710E-03 -0.86023260E-04 -0.57646422E-04
 -0.91018103E-04  0.58380866E-04 -0.87955207E-05  0.86397521E-05  0.15884960E-04
 -0.64811855E-07  0.20739964E-05 -0.93500630E-05  0.81193579E-05 -0.25106175E-06
  0.63166852E-05 -0.18991729E-04  0.16724252E-03 -0.18464726E-03 -0.10002504E-03
 -0.46647954E-04  0.73689516E-04  0.18490753E-03 -0.14680217E-04  0.13585425E-03
  0.52382047E-05  0.10408858E-04 -0.14829410E-05 -0.24072777E-05  0.73663186E-05
 -0.11497406E-05  0.14477036E-04  0.93214110E-05 -0.10077335E-04  0.75040228E-04
 -0.14733693E-04 -0.16183288E-03 -0.12767734E-05  0.68153845E-04  0.26502374E-05
 -0.35810483E-05 -0.48506752E-04 -0.21559344E-03  0.88550598E-05 -0.12673847E-04
 -0.10522633E-04  0.26774380E-05 -0.13922018E-04  0.16588133E-04  0.17237353E-04
 -0.39290021E-05  0.63686723E-05  0.16832104E-04  0.25235924E-04  0.12072500E-04
 -0.25347583E-06 -0.92003992E-05 -0.34800492E-05 -0.10386299E-04 -0.11673637E-04
  0.82017334E-05  0.57257893E-05  0.86179923E-06 -0.82906422E-05  0.17022965E-04
 -0.54667331E-05 -0.11903947E-04 -0.93874929E-05  0.55671662E-06  0.79845760E-05
 -0.82086823E-05 -0.12107669E-04  0.15903899E-04 -0.37943817E-05 -0.82121839E-05
  0.14020072E-04 -0.87756169E-05 -0.69082760E-05 -0.17752879E-04 -0.18904530E-04
  0.29561319E-05  0.13307365E-04  0.42139491E-05  0.22821397E-04 -0.14956763E-04
 -0.60655075E-05 -0.13664208E-05  0.19130256E-05  0.16520020E-03 -0.19763450E-03
 -0.19035809E-03  0.45915975E-04  0.30871978E-03 -0.52477037E-04 -0.58765426E-04
  0.12088655E-03  0.13591706E-03 -0.84952099E-05 -0.48300151E-05 -0.10171338E-05
  0.97533713E-05  0.45041987E-05 -0.19169841E-04 -0.46897811E-05 -0.20177857E-05
 -0.19134326E-05 -0.71554956E-04 -0.19217143E-04  0.23848862E-03  0.28782913E-03
 -0.13543175E-04 -0.21192120E-03 -0.26641747E-04 -0.45250852E-04  0.29097833E-04

  0.18511560E-04  0.18658708E-05 -0.11661281E-04  0.94391236E-06  0.99297680E-05
  0.79646838E-05  0.36438994E-05 -0.92952143E-05 -0.74020753E-05 -0.46601134E-05
 -0.19408059E-04 -0.21732145E-05  0.10164277E-04  0.23067642E-04 -0.17407590E-04
 -0.11730386E-04  0.39508322E-05 -0.40545380E-05  0.10423554E-03 -0.10251150E-03
  0.18738710E-03 -0.37214327E-03  0.34370770E-03  0.77070123E-04  0.82197598E-05
 -0.42830288E-04  0.48699559E-05  0.11940241E-04  0.50402732E-05 -0.18965909E-04
  0.13535327E-04  0.54008641E-05  0.24329308E-05 -0.18540273E-05  0.57643798E-05
  0.19501401E-05 -0.16634890E-04  0.11434274E-04  0.13217749E-03  0.51891885E-04
  0.14451998E-03  0.11395085E-03  0.23160287E-04  0.18455220E-03  0.15867481E-03
  0.14893545E-04 -0.37626964E-05 -0.15682605E-04  0.58814979E-05 -0.12856826E-04
  0.89119683E-05 -0.53863194E-05 -0.17315693E-05 -0.23855502E-05  0.45748312E-05
 -0.26982872E-05  0.76965135E-05 -0.66078299E-06  0.13314764E-04  0.73263507E-05
 -0.34874015E-05 -0.53778300E-05 -0.14213056E-05 -0.61381959E-05  0.23649941E-05
 -0.57679162E-05  0.78712945E-05 -0.40579783E-06 -0.37946717E-05  0.42772993E-05
 -0.21458474E-04 -0.39283178E-05 -0.11075212E-04 -0.12469019E-04 -0.17062848E-05
  0.34434138E-05  0.76755198E-06  0.36831312E-04  0.32314133E-05  0.56190592E-06
  0.96009447E-06 -0.54372613E-04  0.72430613E-04 -0.14922634E-03 -0.17557904E-03
 -0.64683804E-04  0.11342194E-03 -0.35732829E-04  0.58454417E-04 -0.54144198E-04
  0.93973928E-03 -0.18355907E-03 -0.62143792E-03 -0.63655207E-03  0.83936243E-03
 -0.51167616E-03 -0.29566813E-03  0.32157227E-02 -0.40164587E-03  0.22373541E-04
  0.18455549E-04 -0.27693896E-04  0.13894934E-04  0.32545255E-04 -0.21316973E-04
  0.16375260E-04 -0.73815455E-05 -0.10014348E-04 -0.46561167E-05  0.11282359E-03
 -0.11804499E-03  0.40862411E-04 -0.24691373E-04  0.66546180E-05 -0.12059991E-03
 -0.44525329E-04  0.59531584E-04 -0.66776283E-06 -0.66349185E-05  0.13260557E-04
  0.17376410E-04  0.43081389E-05 -0.30008241E-06 -0.62602495E-05 -0.49568478E-05
 -0.64421128E-05 -0.27953629E-05 -0.10483988E-03  0.38384654E-04  0.91344978E-04
  0.17761933E-03  0.17417273E-05 -0.89761939E-04 -0.10149777E-03  0.38946746E-04
  0.68301240E-05 -0.34935174E-05  0.65108072E-05 -0.26093719E-04  0.16679360E-04
  0.26284397E-04 -0.30169223E-05 -0.17522729E-04 -0.13194723E-04 -0.22904574E-03
 -0.94665806E-04  0.17559620E-03  0.35864595E-04  0.62751839E-04 -0.64335081E-04
 -0.39617153E-04 -0.92342814E-04  0.19641633E-04  0.51329201E-05  0.10302270E-05
 -0.45843429E-04  0.66201192E-05  0.31752416E-05 -0.11703807E-04  0.51684122E-06
 -0.29622435E-05  0.20254194E-04  0.28189115E-05  0.15113125E-04  0.94948405E-05
  0.66260715E-05  0.88809924E-05  0.10343650E-04  0.38845672E-05 -0.33887422E-05
 -0.84362434E-05 -0.11355434E-04 -0.17782209E-04  0.17717271E-04 -0.68817331E-05
  0.13566571E-04 -0.22321343E-04 -0.26328801E-05  0.50848999E-05 -0.68898056E-06
 -0.87243585E-05  0.34133677E-05  0.27133102E-04 -0.11281101E-05  0.84261613E-05
 -0.19790315E-04  0.12562106E-05  0.49917137E-05  0.11065908E-05 -0.40621899E-05
  0.71103363E-05 -0.32187317E-04  0.50620295E-05 -0.42818408E-05  0.10914414E-04
 -0.16876702E-05  0.56115523E-05  0.14046272E-04 -0.37889352E-04  0.97502965E-04
 -0.16927486E-03  0.17991273E-03 -0.82888324E-04  0.35212337E-06 -0.98060607E-04
 -0.25311598E-05 -0.14415060E-03 -0.87922865E-06  0.40926245E-05  0.66163608E-05
  0.48326537E-05  0.32123450E-05  0.17782208E-04 -0.12235800E-05  0.11741706E-04
 -0.69601114E-05 -0.72499279E-04 -0.12480653E-03  0.83592636E-04 -0.78313388E-04
 -0.88452231E-04  0.31548196E-03 -0.10964646E-03 -0.75684998E-04  0.11259348E-04

  0.54812626E-05  0.33800751E-05 -0.95482227E-05 -0.84425106E-06  0.30485849E-04
  0.71958610E-05  0.14635308E-04  0.20173948E-04 -0.13851139E-04  0.11348178E-04
  0.18039517E-04 -0.82763877E-05  0.96843244E-06  0.24947764E-04 -0.24164537E-05
  0.87987374E-05 -0.11146520E-04  0.59709022E-04 -0.10965023E-03  0.13143502E-03
 -0.42603416E-03  0.65375953E-03 -0.33727697E-03 -0.23381565E-03 -0.46674792E-03
 -0.61410711E-04 -0.23652491E-03 -0.10587224E-04 -0.18638207E-05  0.16545954E-05
 -0.93460068E-05 -0.96570913E-05  0.39241439E-05 -0.54301920E-06 -0.49468132E-05
 -0.17540989E-05  0.31510402E-04  0.91639020E-04  0.15994253E-03  0.42854547E-04
  0.60095119E-04 -0.62968181E-04  0.31894322E-04  0.13283466E-03 -0.63342060E-04
  0.27604148E-05  0.16703706E-04  0.26523048E-05  0.74614314E-05  0.88377006E-06
 -0.12984618E-04  0.14789932E-04  0.38561358E-05  0.13265690E-05  0.13438171E-04
 -0.16417786E-04 -0.13435391E-04  0.15154592E-04  0.42217745E-07 -0.22741172E-04
 -0.86337734E-05 -0.32342109E-05  0.21944903E-05 -0.10809821E-04  0.13764433E-04
  0.12938776E-04 -0.76990879E-05 -0.77831968E-05  0.11733674E-04  0.26855095E-05
 -0.81075243E-05 -0.40021664E-05 -0.19166950E-05  0.53617477E-04  0.16805910E-05
  0.19215455E-04 -0.10612450E-04 -0.38037229E-04 -0.58341914E-05 -0.21503746E-04
 -0.91253760E-05  0.45417260E-04 -0.20749570E-03 -0.39630053E-04 -0.13602259E-05
 -0.21310065E-03  0.46967308E-04 -0.13742173E-03 -0.44626502E-04  0.17679968E-03
 -0.22718645E-03  0.98807795E-03  0.92066446E-04  0.11511928E-03 -0.29792774E-03
  0.14913613E-03 -0.75274389E-03 -0.40164587E-03  0.54207683E-02  0.33754603E-05
  0.39717231E-04  0.13602101E-04 -0.17425154E-04  0.67994130E-04 -0.45596724E-04
  0.18609513E-04  0.50696151E-05  0.10371292E-04 -0.56544367E-04 -0.63998382E-04
 -0.14124583E-04  0.73561179E-05  0.27592984E-03 -0.14890116E-03  0.13399440E-03
 -0.28415879E-03 -0.59024204E-05  0.19238954E-04  0.49131884E-04 -0.50007483E-04
  0.16378095E-04 -0.19236630E-04  0.45963637E-05 -0.18005615E-04 -0.13190815E-04
 -0.14880816E-04  0.17649160E-04  0.13914189E-03 -0.24865082E-03 -0.43367292E-03
 -0.31436702E-04 -0.13042010E-03  0.26472186E-03  0.22022464E-03  0.60306170E-04
  0.26752308E-05 -0.24374461E-04  0.22391125E-04  0.72173551E-05 -0.27423042E-04
  0.28448213E-05 -0.14471593E-04  0.27691318E-05  0.32244321E-05 -0.20262175E-04
 -0.49447355E-04  0.13173395E-03 -0.46152170E-04  0.27426392E-04  0.41569677E-04
 -0.28705650E-04  0.14085111E-03  0.16442560E-03 -0.13823554E-04 -0.33367111E-04
  0.22692883E-04 -0.57458812E-05  0.11825310E-04 -0.18480998E-04  0.28706799E-05
  0.43581892E-05 -0.10548439E-05  0.14812926E-04 -0.31315166E-04 -0.95312442E-05
 -0.28264562E-05 -0.15326482E-07 -0.22146678E-04  0.52208313E-05 -0.21407029E-05
 -0.20927272E-04 -0.93980476E-05  0.14823184E-04  0.64096591E-05 -0.97507902E-05
  0.16735113E-04  0.99382704E-05  0.14631107E-04  0.67809472E-05 -0.15308130E-04
  0.14889006E-04 -0.97527735E-05 -0.13829536E-04 -0.63597741E-06  0.13903375E-04
  0.12213236E-04 -0.20857162E-05  0.24448139E-04 -0.87954366E-05  0.10554286E-04
 -0.12604357E-04 -0.33106090E-04  0.11377132E-04  0.21899391E-04  0.88670590E-05
  0.74860625E-05  0.11115261E-05 -0.12043930E-04 -0.64586228E-04 -0.64729282E-03
  0.27376410E-03 -0.13155110E-03  0.18140011E-03  0.39333657E-03  0.96655884E-04
 -0.28629169E-04  0.79040458E-04 -0.30255616E-05 -0.60323075E-06 -0.21416135E-04
  0.18453627E-05 -0.88502244E-05 -0.40759704E-05  0.66549340E-05 -0.75165278E-06
  0.38582509E-05  0.18968162E-03 -0.18098810E-06 -0.11893948E-03 -0.13701245E-03
  0.16225352E-03 -0.16381153E-03 -0.80192860E-04  0.72657214E-04 -0.90731067E-04

 -0.70384256E-06 -0.16944491E-05 -0.14382875E-05 -0.93622933E-06 -0.31637062E-06
 -0.91741369E-06  0.67292900E-07 -0.49755465E-06 -0.30896576E-05 -0.14369015E-05
 -0.65721958E-06 -0.10278539E-06  0.32048299E-06 -0.24975828E-05  0.23112707E-05
 -0.84326779E-06 -0.74710264E-06  0.13274919E-05  0.39949262E-05  0.32430113E-05
 -0.98475454E-06 -0.36244118E-04  0.41636837E-04  0.98229770E-05 -0.42329461E-05
 -0.18311781E-04 -0.46989804E-05  0.56977512E-06 -0.15359011E-05  0.32716652E-06
 -0.16197388E-05  0.13506470E-05 -0.55006840E-06 -0.70280280E-06 -0.95507104E-06
 -0.17479988E-05  0.47748192E-05  0.30162297E-05 -0.12389348E-05 -0.57432076E-07
 -0.20276301E-04 -0.44205287E-04 -0.20973567E-06 -0.21054995E-05 -0.29764931E-04
 -0.54967563E-06  0.64794385E-09 -0.48544623E-07  0.12095397E-05 -0.86025117E-06
 -0.11293142E-05 -0.34462506E-06 -0.57741740E-06  0.10686600E-05  0.72318739E-06
 -0.27719467E-06  0.77647102E-06  0.39878123E-07  0.23802258E-05 -0.11907875E-05
  0.84576114E-06  0.10655468E-05 -0.38010168E-07 -0.18136849E-05 -0.51501691E-06
 -0.12092658E-06 -0.36253408E-06  0.14166650E-06  0.13043414E-05  0.23538747E-06
  0.53299535E-06  0.16252517E-06 -0.29069786E-05  0.93125095E-06  0.34114980E-06
  0.89866956E-06  0.70543639E-06  0.62562813E-06  0.10793539E-05 -0.84169813E-06
 -0.44204288E-06 -0.23465944E-05  0.73912113E-05 -0.24042818E-05  0.53417378E-06
 -0.86236721E-05  0.37620244E-05  0.24505803E-06 -0.27260324E-06  0.98029966E-06
  0.14087918E-04  0.11085179E-04 -0.46777763E-04 -0.11008010E-04 -0.15474262E-04
 -0.39962496E-05 -0.81859923E-05  0.22373541E-04  0.33754603E-05  0.38397542E-04
  0.82769488E-05  0.22209007E-05  0.26505047E-05  0.26698222E-05 -0.26363722E-05
 -0.36945480E-05 -0.37278809E-05 -0.26615098E-05 -0.11314627E-03  0.45597725E-04
  0.82348805E-04 -0.77375526E-04  0.28663313E-04  0.64197184E-04 -0.11790472E-03
 -0.14965162E-03  0.60434340E-04 -0.11767936E-05 -0.24987700E-05 -0.21774245E-05
 -0.26588547E-05  0.14220402E-05  0.23604734E-05 -0.24888416E-05  0.21615305E-06
  0.16758966E-05 -0.17165658E-04  0.10755012E-04 -0.92555081E-05  0.37547550E-05
  0.49521020E-04 -0.19263319E-04  0.18646644E-05 -0.29992614E-05  0.50564660E-05
 -0.20166451E-06 -0.12544160E-05  0.36555392E-05  0.29384718E-06  0.80529974E-06
 -0.12604266E-05 -0.25172602E-05 -0.45017806E-06  0.10688029E-06  0.26545922E-04
  0.11818527E-04 -0.11820199E-04  0.32746179E-04  0.22941954E-04 -0.18776776E-04
  0.73198687E-05 -0.12801946E-04  0.97127892E-06 -0.50986435E-06  0.13250519E-05
 -0.14377805E-05 -0.22014998E-05 -0.42686331E-06  0.95119743E-06 -0.89514187E-07
  0.32831674E-06  0.18581454E-06 -0.24260748E-05  0.11225778E-05  0.72309396E-07
  0.13270526E-06  0.89682675E-06 -0.17793548E-05  0.93573204E-06  0.66580126E-06
  0.74403877E-06 -0.15435165E-05  0.74289349E-06  0.10718244E-05  0.15342357E-05
 -0.26174412E-05  0.15026733E-06  0.17215294E-05 -0.76161059E-07 -0.13294379E-05
  0.50709445E-06 -0.62297012E-07  0.10096666E-05 -0.72176921E-06  0.38956334E-06
  0.27757572E-06 -0.32327154E-06  0.69157116E-06 -0.68199039E-06  0.13351212E-06
 -0.14215196E-05  0.12646661E-05 -0.12593037E-05 -0.28980613E-05  0.42956353E-06
 -0.18982019E-06 -0.69500443E-07  0.14258911E-05  0.20012701E-04  0.87984633E-05
 -0.20231768E-04  0.69784335E-05 -0.40172192E-04 -0.50849993E-05 -0.90050611E-05
  0.47996942E-05 -0.10535770E-04 -0.14280067E-05 -0.34298881E-06  0.20178177E-05
  0.26687326E-06  0.23517869E-05 -0.74859325E-06 -0.52743095E-06 -0.79658471E-06
  0.38365601E-06  0.17850634E-04  0.42941036E-05  0.29968598E-05 -0.63933980E-05
 -0.35666459E-05 -0.15931817E-05 -0.66922298E-05  0.94304076E-05  0.21698335E-04

  0.45688845E-06 -0.67499854E-06  0.24660948E-05  0.25740573E-05 -0.78774824E-05
 -0.59938454E-06 -0.87961033E-06  0.22162554E-05 -0.17621362E-05 -0.45536675E-05
 -0.29854783E-06 -0.95988355E-06 -0.10708381E-05  0.21187971E-05 -0.58042486E-06
  0.10008090E-05  0.59753647E-06  0.15189076E-05  0.24357458E-04 -0.43790996E-05
  0.26281441E-04 -0.90748757E-04  0.34314817E-05  0.12492935E-04 -0.15371717E-04
 -0.42026697E-04 -0.25037566E-04 -0.55848769E-06 -0.50376573E-06 -0.69001128E-06
 -0.22202087E-05 -0.25813888E-05  0.20814495E-05 -0.29947633E-05  0.11110868E-05
 -0.24056262E-05  0.68253755E-05 -0.19537735E-04  0.13103494E-04 -0.28675002E-04
 -0.25315050E-05 -0.23735048E-04  0.14522427E-04 -0.22167739E-04 -0.78021693E-05
 -0.41124474E-06  0.23058615E-05 -0.82309778E-06  0.91202371E-08  0.91182063E-06
 -0.13265224E-05  0.57509411E-06  0.16585241E-05  0.58662637E-07 -0.82411667E-07
 -0.19971309E-05  0.29012464E-06  0.93111334E-06 -0.39682730E-05  0.12538673E-06
  0.81292201E-06 -0.16578142E-05 -0.46695565E-06  0.23441179E-06 -0.45906761E-06
 -0.71541839E-07 -0.95700320E-06 -0.20451595E-05  0.14392852E-06  0.58148926E-06
  0.85644928E-06  0.24366648E-06 -0.39626120E-06 -0.49017517E-06 -0.72249589E-06
  0.58662292E-07 -0.48927657E-05 -0.94554800E-07 -0.15805868E-05 -0.15939690E-05
 -0.79697380E-06  0.52574239E-05  0.44860438E-05 -0.43851376E-05 -0.22512757E-05
 -0.13111793E-04  0.76055774E-05 -0.11680423E-04 -0.65428184E-06  0.58744482E-06
  0.52610080E-04 -0.12332652E-04 -0.59075970E-04 -0.60909727E-05  0.68885380E-04
 -0.37694389E-04 -0.15150935E-04  0.18455549E-04  0.39717231E-04  0.82769488E-05
  0.80935276E-04  0.78946647E-05  0.10805940E-04 -0.54151056E-05  0.89509397E-05
  0.72583162E-06 -0.14454345E-05 -0.17486076E-04 -0.53421478E-04  0.16254879E-03
  0.38753283E-03 -0.52751772E-03 -0.76005402E-04  0.43939761E-03 -0.53879144E-04
 -0.92634093E-05  0.22595312E-03 -0.32125431E-05 -0.32225490E-05  0.19113547E-05
 -0.42480533E-05  0.58601100E-05 -0.51908271E-05  0.14042486E-06 -0.16008618E-05
 -0.46875978E-06  0.15363851E-04 -0.41384977E-04 -0.32308591E-05 -0.72194919E-05
  0.45875921E-04  0.31238560E-04 -0.24128792E-04 -0.71606432E-05  0.15518688E-04
  0.73912727E-06 -0.22588977E-05 -0.91288659E-06  0.27963698E-05 -0.44262423E-05
 -0.41675838E-05 -0.15699742E-05  0.18220325E-05  0.27988068E-06  0.35516393E-04
  0.27358555E-04 -0.27379306E-04  0.20924001E-05 -0.84436895E-04  0.17005590E-04
  0.23118508E-04 -0.20399466E-04  0.14455386E-04 -0.43398800E-06  0.14931579E-05
  0.85028939E-06 -0.36795879E-05  0.10452554E-04 -0.15262003E-05 -0.74128088E-06
 -0.35223753E-06 -0.26471850E-05 -0.37861215E-06 -0.34537858E-05 -0.22226410E-05
 -0.35579265E-05  0.60279904E-05 -0.37900449E-05  0.47321497E-06 -0.14415193E-05
  0.82544756E-07  0.22950433E-06  0.18359416E-05  0.12920728E-05  0.87881494E-06
 -0.63485387E-05  0.54160781E-06  0.11930826E-05 -0.73118336E-06 -0.79985358E-06
 -0.15597186E-06  0.10257127E-05 -0.11813777E-05 -0.55257938E-06  0.16273673E-05
 -0.28181953E-05  0.19329387E-06  0.13792605E-06  0.17849479E-05 -0.11407606E-05
 -0.41799315E-05 -0.94439596E-06 -0.10216550E-05 -0.29665019E-05 -0.19989690E-05
  0.88545348E-06 -0.17455825E-05  0.16815009E-05  0.61282332E-05  0.46527654E-04
  0.61618341E-04 -0.48204245E-04 -0.31048564E-04  0.10700940E-04 -0.15031368E-04
  0.22156784E-04 -0.64073579E-04 -0.25742240E-05 -0.12526213E-05 -0.44343592E-06
 -0.69433380E-06  0.15000808E-05 -0.16717822E-05  0.35881169E-05 -0.28780053E-06
  0.33998196E-05  0.39744245E-04 -0.36714705E-04 -0.42022262E-04 -0.48237170E-04
 -0.38570546E-05  0.69843012E-05 -0.77361546E-05 -0.23317870E-04 -0.76240471E-06

 -0.19303072E-05 -0.42057237E-06 -0.15324675E-05 -0.70670095E-06  0.65118297E-06
 -0.22102950E-06 -0.70975091E-06 -0.14119103E-05 -0.31612120E-06  0.11081736E-05
 -0.13948007E-06 -0.57115902E-07  0.86991098E-06  0.21832301E-05 -0.86083076E-05
  0.27897290E-06  0.26419710E-05  0.14869725E-05  0.14884210E-04  0.19519594E-04
 -0.13110808E-06 -0.45913985E-04 -0.21659268E-04 -0.58079886E-05 -0.20173513E-04
 -0.16025781E-05  0.32617631E-04  0.55928372E-06  0.52239390E-06  0.40756876E-05
  0.58241351E-06 -0.10686953E-05 -0.63203423E-05 -0.14318770E-05 -0.94475663E-06
 -0.81231984E-06 -0.78622959E-06  0.58083036E-05 -0.15090950E-04 -0.90012614E-06
  0.24631224E-04 -0.76000355E-05  0.14514337E-04 -0.36295279E-04  0.21609792E-04
 -0.12702828E-05  0.39812726E-06 -0.24249979E-06 -0.15620124E-05 -0.29738977E-05
  0.16630436E-05  0.95885202E-07 -0.61469634E-06  0.69691445E-06  0.13276112E-05
 -0.29602368E-05  0.10573329E-05 -0.60151769E-06  0.55323045E-06 -0.15951476E-05
 -0.73364870E-06 -0.43898393E-06  0.12846121E-07 -0.23410556E-06  0.11204489E-05
  0.30140524E-06  0.69167108E-07  0.19005987E-07 -0.15321182E-06  0.82664148E-06
  0.10058137E-05 -0.49612721E-06 -0.57345991E-06  0.12890841E-05 -0.21559048E-05
 -0.70238949E-06  0.62046850E-06 -0.18072893E-05  0.78122271E-06  0.56588176E-06
 -0.65890547E-06  0.58670637E-06  0.14198091E-06 -0.19930824E-05  0.11787796E-05
 -0.25619264E-05  0.26599046E-06 -0.14730479E-06  0.10351155E-06  0.30772981E-05
 -0.14773695E-04 -0.60959187E-05 -0.11746004E-04  0.10676710E-04 -0.23130609E-04
  0.27940246E-04 -0.25507883E-06 -0.27693896E-04  0.13602101E-04  0.22209007E-05
  0.78946647E-05  0.60097831E-04  0.64892049E-05  0.99034662E-05 -0.69252850E-05
  0.41981142E-06 -0.35424153E-05 -0.12667968E-04 -0.14134037E-04  0.18544841E-03
  0.12910238E-03 -0.37348999E-03  0.16597822E-03 -0.66076532E-04 -0.91114438E-05
  0.21238596E-04  0.13275414E-03 -0.41688519E-05 -0.33529199E-05  0.50591950E-05
  0.21179938E-05  0.41682139E-06 -0.94232723E-05 -0.12717697E-05  0.33050822E-05
  0.34116815E-05 -0.26446833E-05 -0.14184654E-04 -0.18976488E-04  0.25406189E-04
 -0.23185992E-04  0.18859753E-04 -0.40978115E-04  0.24525570E-05  0.59664254E-04
  0.40251660E-05  0.21298274E-05 -0.21175928E-05  0.20140663E-06 -0.14063021E-06
 -0.17604613E-05 -0.10904120E-05  0.19297722E-05 -0.19034519E-05  0.12401467E-04
  0.85664880E-05 -0.38486797E-04 -0.48043890E-05 -0.31138183E-04 -0.41268440E-04
 -0.11990908E-04  0.32520894E-05  0.18391936E-05 -0.16015200E-05 -0.23082685E-05
  0.29635774E-05 -0.22576748E-05  0.13310357E-06  0.38490716E-05 -0.43608019E-07
  0.74829065E-06 -0.27127170E-05  0.47805911E-06  0.38256405E-06 -0.33844650E-05
 -0.15105518E-05 -0.43646206E-05  0.52271930E-05  0.33654894E-06 -0.40894414E-06
  0.62230962E-06 -0.12192398E-06  0.92470262E-06  0.11391393E-06 -0.11112974E-05
 -0.48537620E-07  0.13396577E-05 -0.25518324E-06  0.18592175E-06  0.11140823E-05
 -0.96996171E-06  0.31854864E-06 -0.25589586E-05 -0.13613170E-05  0.18117656E-05
  0.21300042E-05  0.61709035E-06  0.16160561E-05  0.10830760E-05 -0.41874958E-06
 -0.11288404E-05  0.37368103E-05 -0.97179919E-06 -0.13077392E-06  0.76117876E-06
 -0.21189675E-06 -0.12395069E-05  0.37259870E-05  0.21251641E-04  0.34645327E-05
 -0.31176247E-04  0.54541613E-05 -0.25363532E-04  0.11848918E-03 -0.27668678E-04
 -0.34631149E-04  0.16728573E-04  0.93900664E-06 -0.90403161E-06 -0.18351263E-05
 -0.99555935E-06 -0.73972554E-06  0.19431506E-05  0.14296026E-05 -0.54882631E-06
  0.10519871E-05  0.50464549E-05 -0.12579670E-04  0.26209281E-04  0.23769274E-04
 -0.14316383E-05 -0.14941448E-04 -0.13471127E-04  0.18183937E-04 -0.86515324E-05

  0.77074382E-07 -0.16444800E-06  0.22797319E-05  0.11762395E-06 -0.15923675E-05
 -0.14292869E-06 -0.96015567E-07 -0.32412019E-06 -0.14316024E-05 -0.27407371E-05
 -0.24943330E-06  0.10118946E-05  0.15589886E-05 -0.67791531E-06  0.86861308E-06
 -0.71777710E-06  0.49020546E-06  0.20671975E-05  0.12535444E-04  0.77223028E-05
 -0.21689203E-05  0.41825390E-04 -0.10021941E-04 -0.94698512E-05 -0.10978627E-04
 -0.17035153E-04  0.21369356E-04  0.30477352E-06 -0.10989746E-05  0.31121287E-05
 -0.56280858E-05  0.90572811E-06  0.23072800E-05 -0.23194940E-05 -0.14852659E-06
 -0.17972462E-06  0.25735759E-04 -0.12008369E-04  0.56878594E-05 -0.14696508E-04
 -0.63467939E-05  0.23720847E-04  0.12503920E-04  0.47585449E-05  0.17242126E-04
 -0.40478530E-06  0.13634776E-05 -0.99661927E-06 -0.92268356E-06 -0.28693587E-06
 -0.16251909E-06 -0.18801446E-05  0.88810599E-06 -0.99852992E-07 -0.27682176E-05
 -0.26051554E-05 -0.17671920E-06  0.12034387E-05  0.13473872E-05 -0.14353831E-05
 -0.12595913E-05  0.21434284E-06  0.49011993E-06 -0.47278552E-06  0.54230041E-06
 -0.34843267E-06  0.43374033E-06  0.20194378E-05  0.14272683E-06  0.20290191E-05
  0.10579708E-05  0.61311881E-06  0.24885339E-05  0.13883651E-05  0.85524863E-06
 -0.17329042E-05  0.23836604E-05  0.10692530E-06 -0.77865327E-06 -0.14155640E-05
 -0.56873716E-06 -0.33690908E-05  0.52197873E-07 -0.21341408E-06 -0.36720437E-05
 -0.29870494E-08  0.41628731E-06  0.48386581E-05 -0.65544064E-06 -0.16980778E-07
  0.18223525E-04  0.33135453E-05 -0.15696661E-04 -0.85470843E-05 -0.16973957E-04
 -0.33476445E-05  0.25219297E-04  0.13894934E-04 -0.17425154E-04  0.26505047E-05
  0.10805940E-04  0.64892049E-05  0.59741162E-04 -0.23464441E-04 -0.17152498E-04
  0.27841892E-06  0.35619804E-05 -0.49780339E-05  0.51593482E-05  0.88420042E-04
  0.14826067E-03 -0.32431993E-03  0.17642124E-04  0.12622827E-03  0.49260884E-05
  0.85697826E-05  0.49673456E-04  0.23974320E-05  0.59385548E-06  0.29837376E-05
 -0.28192878E-05  0.74723488E-06  0.15225135E-05 -0.37207814E-06 -0.49696409E-05
 -0.23828001E-05  0.93221812E-05 -0.55864474E-05 -0.18796439E-04 -0.10166566E-04
  0.17529002E-04  0.16911573E-04  0.15308866E-04 -0.78685265E-05 -0.12467293E-04
 -0.11805631E-05 -0.58650138E-06 -0.11556520E-05 -0.17340193E-07  0.18234302E-05
  0.11609853E-06 -0.92480025E-06 -0.67636144E-06  0.10280726E-06  0.17355681E-05
 -0.54609401E-05 -0.17854466E-04 -0.15317645E-04  0.12414303E-04 -0.20759229E-04
 -0.41695831E-05 -0.19756872E-04  0.48164455E-05  0.11320256E-05 -0.36354565E-07
 -0.17132469E-05 -0.16737402E-05  0.70824373E-06  0.24187096E-05  0.44063352E-06
 -0.61533527E-06  0.20342494E-07 -0.71813636E-06  0.21688388E-05 -0.59260740E-06
 -0.51900733E-05  0.78277447E-06  0.19525123E-05  0.14330789E-06 -0.18484154E-06
 -0.88217758E-07  0.46039289E-06 -0.21938999E-06  0.11651061E-05  0.41362633E-06
  0.36757267E-06 -0.11943861E-05  0.46986325E-06  0.19921088E-06  0.64884284E-06
 -0.20168935E-05  0.18832631E-05  0.11051613E-05  0.77992699E-06  0.15816320E-05
 -0.24586853E-05 -0.31718123E-06 -0.77692292E-07  0.59678922E-07 -0.98310846E-06
  0.21591841E-05  0.30131794E-06 -0.27247950E-05  0.25442493E-06  0.88423350E-06
 -0.57948237E-06 -0.49186623E-06  0.25010882E-05  0.90977000E-05  0.92210158E-05
  0.10542400E-04  0.38827462E-04 -0.24234323E-04  0.93008158E-04 -0.35454131E-04
 -0.38817045E-04  0.25749975E-04 -0.26731430E-05 -0.70838606E-07  0.58517457E-06
 -0.25391752E-05  0.20384189E-05  0.74714105E-06  0.17227842E-05  0.18254855E-07
  0.45526182E-07 -0.18662008E-04 -0.96427575E-05 -0.69786271E-05  0.46033274E-04
 -0.28780187E-04 -0.17606906E-04  0.11394421E-05 -0.12672575E-04  0.31720390E-05

 -0.18438747E-05 -0.29488854E-05 -0.41161242E-06  0.38796625E-06  0.40774728E-05
  0.27401899E-05  0.84061000E-06  0.15055996E-05  0.20799154E-05 -0.13037415E-05
  0.10531509E-05  0.36688458E-05  0.18798240E-06  0.34632995E-05 -0.27379796E-05
 -0.30507590E-05 -0.14609800E-05 -0.29207444E-05  0.49559983E-04  0.25909720E-04
  0.44540998E-05 -0.10628939E-04 -0.85196572E-05  0.94542840E-05 -0.16119549E-04
  0.62447191E-06  0.27197134E-04 -0.82070532E-06  0.14661269E-05  0.14756525E-06
  0.29682973E-05 -0.65153201E-05 -0.34351869E-05 -0.11174208E-05 -0.91391037E-06
 -0.24567847E-05 -0.18779623E-05  0.63129156E-06  0.79567739E-05  0.74069749E-05
  0.58944646E-05 -0.28229883E-05  0.71973824E-05  0.42803220E-05  0.34576480E-05
 -0.39597239E-06  0.41982831E-05 -0.80793746E-06  0.81532009E-06 -0.81773764E-05
  0.32918001E-05  0.20946685E-05  0.22624887E-07 -0.13074156E-05 -0.80412977E-07
  0.80997072E-06  0.51572699E-07  0.31467328E-05 -0.72323064E-05 -0.69181417E-06
  0.79023797E-06 -0.58228670E-08  0.26860287E-06 -0.27865070E-06  0.35980938E-05
 -0.30064884E-06  0.24496033E-05 -0.14446641E-05  0.31666890E-06 -0.11017732E-05
  0.60849700E-06 -0.21257536E-05 -0.35086013E-06  0.18085408E-05  0.16370607E-05
  0.30223685E-05 -0.68361714E-05  0.22473924E-05  0.30257613E-05 -0.42586401E-06
  0.13187943E-05  0.86183002E-05  0.87282139E-05 -0.96895267E-05 -0.11031976E-05
 -0.94243920E-05  0.10665353E-04 -0.12620846E-04 -0.24179001E-06  0.57639669E-05
  0.17620823E-04  0.78105922E-04 -0.57747236E-04  0.58508481E-06  0.61178435E-04
 -0.15000139E-04 -0.60651819E-04  0.32545255E-04  0.67994130E-04  0.26698222E-05
 -0.54151056E-05  0.99034662E-05 -0.23464441E-04  0.10487220E-03 -0.30795758E-04
  0.69883603E-05 -0.16207254E-05 -0.85902453E-05  0.54294374E-05  0.12976047E-03
 -0.16594731E-03  0.81056574E-04  0.23340966E-03 -0.34355593E-03  0.45442358E-05
  0.27200089E-04  0.12004142E-03 -0.13743692E-05 -0.22541365E-05 -0.32859608E-05
  0.58489840E-06 -0.37165400E-05  0.69997089E-05  0.40643734E-05 -0.31418194E-05
 -0.22472389E-05  0.14485575E-04 -0.32245201E-04 -0.46100096E-06  0.28358049E-04
 -0.38846750E-04  0.17667599E-04  0.26718102E-05  0.67863175E-05 -0.15699092E-04
  0.14375906E-05  0.81008952E-05 -0.14371771E-05  0.17150695E-05 -0.99014178E-05
  0.54416469E-05 -0.32256074E-05  0.18427612E-05 -0.60767361E-05 -0.68571360E-05
  0.22109702E-04  0.11982154E-04 -0.11003373E-04  0.10591022E-03  0.29589893E-05
 -0.23590115E-05  0.99046973E-05  0.26552250E-04  0.14795907E-05  0.37107514E-05
  0.28092558E-05  0.14296521E-05 -0.66244601E-05  0.12138872E-05 -0.32300987E-05
  0.43912423E-06 -0.27900385E-05  0.46444734E-06 -0.59732096E-05 -0.14798830E-05
  0.13232471E-05  0.74121374E-05  0.10357278E-05  0.18458463E-05 -0.14964286E-06
  0.21834247E-05 -0.20744252E-06 -0.30628609E-06 -0.10366039E-05  0.44522226E-06
 -0.15501721E-05  0.10568010E-05  0.24563840E-07 -0.11967631E-05  0.20524544E-05
 -0.79849879E-06  0.85040905E-06 -0.21925222E-05  0.10947451E-05  0.39079967E-05
  0.11873949E-05  0.13688530E-05  0.18060031E-05  0.16134294E-05 -0.50732097E-06
 -0.10862417E-05  0.10450316E-05 -0.67736747E-06  0.36581962E-05 -0.76397810E-06
  0.31475540E-05 -0.12467395E-05  0.24020494E-05  0.35251884E-06  0.22405137E-05
  0.27904214E-04  0.31638572E-05 -0.98706463E-05 -0.41906099E-05  0.26033530E-05
 -0.63369362E-06  0.25145493E-04  0.60015391E-06 -0.18774036E-05  0.40415917E-06
  0.13298776E-05 -0.51645709E-06  0.23492759E-05  0.16371127E-05  0.25919678E-06
  0.29734340E-05  0.15850056E-04 -0.14061409E-05 -0.13998665E-04 -0.40133675E-04
  0.54200485E-04  0.31130551E-04 -0.60810031E-04  0.12244725E-04 -0.69001193E-04

  0.39873477E-06  0.42712894E-06 -0.11462164E-05  0.25427918E-05 -0.58232757E-06
 -0.48062088E-05 -0.32780630E-06  0.97180160E-06  0.78923337E-06  0.18403881E-05
  0.83615534E-06 -0.36124545E-06  0.12869824E-05 -0.87990780E-06  0.28266472E-05
  0.19184497E-05  0.89482519E-06 -0.32323017E-05 -0.34962520E-04 -0.24728837E-04
  0.13067770E-04 -0.27237972E-04 -0.98074493E-05  0.91398311E-06  0.16297555E-04
 -0.50894685E-04 -0.48669618E-04  0.13433519E-05  0.11399619E-05 -0.10659231E-05
  0.39281248E-06  0.29416824E-06  0.23340569E-05  0.21782699E-05 -0.11572482E-05
 -0.21840085E-05  0.38271582E-05  0.26647773E-04 -0.18357610E-04  0.13683670E-05
  0.63167023E-05 -0.17058518E-05 -0.17044170E-04 -0.13702251E-06 -0.25185930E-04
 -0.12004622E-05 -0.19733919E-06 -0.19172297E-06  0.18128600E-05  0.39961076E-05
 -0.17380941E-05  0.47389276E-06  0.22419831E-06  0.11969628E-05  0.14482570E-05
 -0.24827460E-07 -0.76149624E-06 -0.10231545E-05 -0.38818782E-06  0.42366288E-05
  0.16701492E-05 -0.38499427E-06  0.20097904E-05  0.36844751E-06 -0.29368334E-06
 -0.88523919E-06 -0.29863548E-06  0.11414948E-06  0.13424868E-05 -0.10476148E-05
 -0.18574525E-06  0.26144598E-06  0.19900719E-06 -0.10096988E-05 -0.10894240E-05
 -0.52776973E-06 -0.27286680E-06 -0.36156420E-06  0.25333189E-06  0.11533976E-05
  0.11815351E-05 -0.15909324E-05 -0.22780220E-05  0.32445809E-05  0.33021453E-05
  0.70245858E-05 -0.79938530E-05  0.51510686E-05 -0.18816034E-05 -0.87718620E-05
 -0.69483517E-05 -0.45172077E-04  0.30154403E-04  0.94692273E-05  0.27710820E-04
  0.37952973E-07  0.48127187E-05 -0.21316973E-04 -0.45596724E-04 -0.26363722E-05
  0.89509397E-05 -0.69252850E-05 -0.17152498E-04 -0.30795758E-04  0.84000490E-04
 -0.29870311E-05  0.55692738E-07 -0.62265237E-05 -0.16209145E-04 -0.86194418E-04
  0.13902188E-03 -0.29598048E-04 -0.15209198E-03  0.42175851E-03  0.19181444E-05
 -0.22015838E-04  0.80836033E-04 -0.56355347E-05 -0.21025268E-05  0.16421616E-05
  0.40543293E-06  0.10268445E-04 -0.16985206E-04 -0.22685656E-05  0.82221998E-05
  0.79890613E-05 -0.21143841E-04 -0.47372021E-04  0.36157283E-04  0.21707535E-04
  0.22985227E-04 -0.40002266E-05 -0.33364119E-04  0.94535710E-05  0.62789148E-04
  0.15638638E-05 -0.21825176E-05  0.42112580E-05  0.98073306E-06  0.34677399E-05
 -0.57321027E-05  0.37296019E-06 -0.15104068E-05  0.99968162E-06 -0.30105623E-05
 -0.41171477E-06  0.36797599E-05  0.39418113E-05 -0.36728264E-04  0.18685465E-04
  0.13343068E-04  0.93990842E-05  0.68736549E-05 -0.13016590E-05  0.95615102E-06
 -0.53474972E-05  0.21385281E-05  0.18998720E-05 -0.67011058E-05 -0.29836291E-06
 -0.11371979E-05 -0.24849393E-06  0.10706814E-05 -0.21322113E-06  0.28640651E-05
  0.10984415E-05 -0.13781550E-05 -0.21898388E-05 -0.18769908E-05  0.54618358E-06
 -0.81685473E-06  0.43841211E-06  0.18042090E-05 -0.10470900E-06 -0.14979212E-05
  0.98912860E-06  0.44060165E-05  0.92731327E-07  0.13372503E-05  0.14569080E-05
  0.41186280E-05 -0.22777865E-05 -0.84295787E-06 -0.13789780E-05  0.57101485E-07
 -0.14726851E-05  0.21209419E-06 -0.24836808E-05  0.45752607E-06 -0.26022708E-05
 -0.13877740E-05 -0.55687418E-05  0.61425487E-06  0.22999569E-06 -0.24689419E-05
 -0.30572363E-05 -0.40824978E-05 -0.38277319E-05  0.10782668E-04 -0.27024537E-04
 -0.69757496E-05 -0.12284356E-04  0.33309843E-04 -0.19576964E-03 -0.21029750E-05
  0.32375819E-04 -0.54393509E-04 -0.20516596E-06  0.50707763E-06 -0.41971182E-05
  0.12344957E-05 -0.13512054E-05 -0.15988123E-05 -0.87230010E-06  0.52494718E-06
  0.45620052E-07  0.17263718E-04  0.94728855E-05  0.27847782E-04  0.34009187E-04
 -0.25602695E-04  0.37923202E-04  0.24660748E-04 -0.89507248E-05 -0.26644769E-05

 -0.43711630E-06 -0.16526692E-06  0.24500975E-05  0.10128805E-05 -0.16028884E-05
 -0.11569212E-05 -0.42170410E-06  0.30003293E-06  0.35028182E-06 -0.90338557E-06
 -0.64921317E-07  0.25734573E-06  0.13984113E-05  0.39698053E-05 -0.23457968E-05
 -0.82265095E-06 -0.35372395E-06 -0.28649274E-05  0.18449024E-04 -0.16342952E-04
  0.49483654E-06 -0.24337341E-04  0.21628054E-04  0.12182829E-05 -0.40980050E-05
 -0.18675822E-04 -0.33040151E-05 -0.16608951E-05 -0.12376651E-05  0.20465343E-05
  0.11550752E-06 -0.17439629E-05  0.37359825E-06  0.14736757E-05  0.14423274E-05
  0.25572956E-05 -0.72672067E-05 -0.77759161E-05  0.61958633E-05 -0.30205418E-05
 -0.10402654E-04  0.13362659E-04 -0.11962722E-04 -0.15203451E-04 -0.30949238E-05
  0.14769079E-06 -0.52910559E-06 -0.18876337E-05  0.14775795E-05 -0.27793929E-05
 -0.19906666E-06 -0.10097887E-05 -0.32400908E-07 -0.11008645E-05 -0.98687095E-06
 -0.11388044E-05 -0.53041336E-06 -0.13026768E-05 -0.92516353E-06  0.11480453E-05
 -0.18260993E-05 -0.56692383E-06 -0.45157941E-06  0.97897256E-06  0.10205076E-05
  0.13967843E-06  0.10051784E-05  0.14329282E-06 -0.46204076E-06 -0.79652029E-06
 -0.52089684E-06 -0.36553789E-06  0.36006380E-06  0.10129680E-05  0.41716861E-06
 -0.87375383E-07  0.21279508E-05 -0.48116817E-06  0.36103760E-06  0.64310285E-06
 -0.12032504E-07  0.21096295E-05  0.79879299E-05 -0.52403319E-05  0.39337017E-05
 -0.13172656E-04  0.43900808E-05 -0.18327550E-05 -0.14197816E-05  0.36820035E-05
  0.19722625E-04  0.25350352E-04 -0.29690213E-04  0.19842100E-04  0.57997984E-05
 -0.81863033E-05 -0.23695740E-04  0.16375260E-04  0.18609513E-04 -0.36945480E-05
  0.72583162E-06  0.41981142E-06  0.27841892E-06  0.69883603E-05 -0.29870311E-05
  0.33720668E-04 -0.74862089E-07 -0.10417819E-05  0.78760274E-04  0.73103316E-05
 -0.27529561E-04  0.16029765E-05  0.19782382E-04 -0.89899743E-04  0.58318836E-04
  0.18500701E-03 -0.14601810E-04 -0.62518419E-06 -0.43113005E-06  0.15273705E-05
 -0.13714409E-05  0.20925797E-05 -0.20662970E-05  0.78465586E-06 -0.72569964E-06
 -0.19507734E-05 -0.16274880E-04 -0.25306858E-04  0.10413052E-04  0.46074092E-04
 -0.11883539E-04 -0.10945482E-04 -0.15148284E-04 -0.35848173E-05  0.16212923E-04
  0.11341235E-05  0.14794669E-05 -0.71838161E-06  0.56942192E-06  0.21424670E-05
 -0.17696947E-05 -0.10199496E-05  0.96487564E-06 -0.14133707E-05 -0.39393495E-05
 -0.70210083E-05 -0.61513550E-05 -0.70226734E-05  0.21485917E-04 -0.55508237E-05
  0.42254903E-05  0.53151157E-06 -0.87925691E-05  0.18674136E-05 -0.10724406E-05
 -0.20413170E-05 -0.83236760E-06  0.29046231E-05 -0.53725994E-06 -0.22430635E-05
 -0.14895817E-05  0.42810715E-06 -0.10436763E-05  0.61246324E-06 -0.15359655E-06
 -0.10653219E-05  0.67518088E-06  0.25431267E-05 -0.81796002E-07 -0.13346951E-06
  0.36634683E-06  0.96139685E-06  0.30235201E-06 -0.11096367E-06 -0.13616298E-05
 -0.24622198E-06  0.12738198E-05  0.76135646E-06  0.70996061E-07  0.58791632E-06
 -0.20714836E-06  0.14689436E-06  0.12190469E-06  0.32079529E-06  0.18952626E-05
 -0.47536617E-06 -0.79793953E-06 -0.94726783E-07  0.61684874E-06  0.67472467E-06
 -0.19815024E-05  0.12209709E-05  0.12588662E-05 -0.31567020E-05  0.17216570E-05
  0.18739961E-05  0.13398013E-06  0.11487263E-05 -0.63572181E-05  0.10344915E-04
 -0.29880332E-04  0.11224632E-04 -0.29621873E-04 -0.23785052E-04  0.14100066E-04
  0.27160955E-04 -0.13071488E-04 -0.13409806E-06 -0.20357509E-05  0.17166833E-06
 -0.73146420E-06  0.21793848E-05 -0.38290713E-06 -0.10659667E-05 -0.18582964E-06
  0.76925539E-06 -0.36850792E-05 -0.17551651E-04  0.16681277E-04  0.13410787E-04
 -0.94835830E-05  0.98837783E-05 -0.40404827E-05 -0.15633920E-04 -0.23967022E-04

  0.41855488E-06  0.83988696E-06  0.12968279E-06  0.15505918E-06  0.44469216E-06
  0.76423950E-07 -0.19102655E-06 -0.55386779E-06  0.41579744E-06  0.13675685E-06
  0.11147866E-05  0.29433609E-05 -0.23538490E-06 -0.22510007E-06  0.11530014E-05
  0.23765697E-06  0.12980935E-05 -0.12184092E-06 -0.27405421E-05  0.86623392E-05
 -0.14371149E-04 -0.25157698E-05 -0.95739536E-05 -0.17512580E-04 -0.74604634E-05
 -0.96934567E-05  0.10763996E-04  0.16886404E-05 -0.84923758E-06  0.24842940E-05
 -0.11252113E-07 -0.19417959E-05  0.82303859E-06 -0.11191044E-05 -0.19892471E-05
  0.11335984E-05 -0.65544505E-05  0.91054444E-05  0.15038936E-04  0.95374151E-05
 -0.47632607E-06 -0.14061955E-05 -0.13604515E-05  0.45447924E-05  0.15963745E-04
 -0.10788270E-05  0.17773249E-05 -0.85087205E-06  0.94902040E-06  0.53380666E-07
 -0.10441612E-05  0.44152113E-06 -0.75337840E-06 -0.44834611E-06 -0.14861134E-05
 -0.70904092E-06 -0.59072316E-07  0.90290440E-06  0.92141262E-07 -0.12567752E-05
  0.39948645E-06  0.54043563E-06  0.20250395E-05 -0.96042217E-06  0.60422006E-06
  0.42019339E-06  0.84719081E-06  0.99501590E-06  0.39133186E-06 -0.62058139E-06
  0.31983086E-08 -0.99667305E-06  0.19490638E-05  0.60418850E-06  0.17221416E-05
 -0.69553478E-06 -0.16979254E-05  0.47440828E-06  0.13841094E-06  0.70061244E-06
  0.11364907E-05 -0.72086062E-06 -0.38160885E-05 -0.94691924E-06 -0.66591725E-06
  0.14821181E-05 -0.17712192E-05 -0.81868042E-06 -0.23691463E-05  0.58191076E-05
 -0.36124599E-05  0.18251995E-04  0.83605409E-05 -0.17091423E-05  0.69199496E-05
 -0.68087423E-05  0.64655762E-05 -0.73815455E-05  0.50696151E-05 -0.37278809E-05
 -0.14454345E-05 -0.35424153E-05  0.35619804E-05 -0.16207254E-05  0.55692738E-07
 -0.74862089E-07  0.31465658E-04  0.25610880E-05  0.84470514E-04 -0.18144345E-04
 -0.19637511E-04  0.15726139E-06 -0.24731419E-04  0.21299960E-04  0.84706669E-04
  0.61237726E-04 -0.58049133E-05  0.26022344E-05  0.35385078E-05 -0.23456422E-05
 -0.56669024E-05 -0.90558452E-06  0.81004960E-05 -0.11461695E-05 -0.18545246E-05
 -0.54111284E-05  0.22239423E-05  0.25495862E-04 -0.45352120E-04 -0.46641700E-04
  0.51031999E-04 -0.13829351E-04  0.51432039E-05 -0.19535332E-05 -0.20165048E-04
  0.10578792E-06 -0.96606959E-06  0.72586706E-06 -0.10512136E-06 -0.47323271E-06
 -0.79885381E-06 -0.48191603E-06  0.11487787E-05 -0.22286897E-05 -0.54351679E-05
  0.50046062E-05 -0.10464125E-04 -0.12856512E-04  0.51737871E-05  0.13573399E-04
  0.15254356E-05 -0.12711033E-05 -0.67227143E-05 -0.13239412E-05 -0.10051145E-06
 -0.90158434E-06 -0.30336242E-06  0.87033485E-06 -0.19420957E-05 -0.24528365E-06
 -0.23658622E-05 -0.63953678E-06  0.11310739E-05 -0.70927977E-06  0.71074426E-06
 -0.16046221E-06  0.16384363E-05  0.27459150E-07 -0.47835165E-06 -0.74937113E-06
  0.57150156E-06 -0.22751635E-06 -0.54220830E-06 -0.14864343E-06  0.57571663E-06
 -0.12194731E-06  0.58131106E-06  0.11236296E-05  0.17631240E-06  0.94648174E-06
 -0.64361925E-06  0.46628432E-06  0.37694085E-05  0.50869758E-06  0.14466460E-05
 -0.25646893E-05  0.72382449E-07 -0.21430367E-05  0.24886302E-06 -0.87969611E-06
 -0.23702257E-06 -0.21124438E-05 -0.97861078E-06  0.27010698E-05 -0.32258486E-05
  0.16402547E-05 -0.24518907E-05 -0.99428423E-06 -0.52307670E-05 -0.14208654E-04
  0.12752814E-04  0.74933881E-05  0.24122299E-04 -0.78132023E-04  0.33625919E-05
  0.21629913E-04 -0.47745914E-05 -0.15444313E-05 -0.10906887E-06 -0.29806322E-06
  0.64378212E-06 -0.24319947E-05  0.69412487E-06 -0.17852743E-06 -0.68928298E-06
  0.90628123E-06 -0.97412482E-05 -0.14669074E-05  0.37597682E-05 -0.28853803E-04
 -0.32881562E-05  0.21716156E-04  0.24662008E-05  0.14590275E-04 -0.10155154E-05

  0.15925956E-05  0.56472956E-06 -0.91242515E-06 -0.12786910E-05  0.13369678E-05
  0.28412961E-05  0.98304177E-07 -0.30695897E-05 -0.11015002E-05  0.82874923E-06
  0.24525331E-05 -0.21453342E-05 -0.13120955E-05  0.23291755E-07  0.21369869E-05
 -0.10961303E-05 -0.79732577E-06  0.34534954E-05 -0.17077372E-04 -0.17066769E-05
 -0.20569627E-04  0.88504264E-04 -0.22739752E-04 -0.20429863E-04 -0.10908327E-04
  0.16488260E-04 -0.40766479E-04  0.11088673E-05  0.21005500E-06 -0.39293584E-05
  0.84108078E-06  0.31766494E-05  0.26386067E-05  0.12658236E-05  0.66116820E-06
 -0.63546911E-06  0.15353038E-05  0.32079906E-04  0.16703850E-04  0.88183477E-05
  0.12626901E-05  0.16569623E-04 -0.89020899E-05  0.22618039E-04  0.92360576E-05
 -0.10365312E-06 -0.60698301E-06  0.85001108E-06  0.59827776E-06  0.18168833E-05
 -0.84892444E-06 -0.40688990E-06 -0.82616131E-06 -0.24147217E-05 -0.81355430E-06
  0.12427599E-05 -0.71179633E-07 -0.49768868E-07  0.28092146E-05  0.17444704E-05
 -0.14411054E-06 -0.45278173E-06 -0.21977287E-05 -0.50272923E-06 -0.21245140E-05
  0.30075866E-06  0.18882937E-05 -0.27348154E-05 -0.15617581E-05 -0.74643670E-06
 -0.15340246E-06  0.13813500E-05 -0.19489220E-06 -0.31599345E-05  0.36939772E-06
 -0.95186825E-08  0.48740728E-05 -0.10061729E-05  0.20205135E-06  0.37506864E-06
 -0.28333297E-07 -0.28240425E-05 -0.42151469E-05  0.13181818E-05  0.65635264E-06
  0.93155973E-05 -0.50116183E-05  0.53776521E-05  0.44710438E-05  0.52979458E-05
 -0.28135417E-04 -0.68968002E-05  0.44573141E-04  0.34619423E-05 -0.44051969E-04
 -0.37334987E-04  0.25502787E-05 -0.10014348E-04  0.10371292E-04 -0.26615098E-05
 -0.17486076E-04 -0.12667968E-04 -0.49780339E-05 -0.85902453E-05 -0.62265237E-05
 -0.10417819E-05  0.25610880E-05  0.54117641E-04  0.22162837E-04 -0.14050602E-03
 -0.20239539E-03  0.36425418E-03 -0.21296913E-04 -0.17910179E-04 -0.10370427E-04
 -0.40663956E-04 -0.12255909E-03  0.40932923E-05  0.82210435E-06 -0.67181753E-06
 -0.78208338E-06 -0.79314357E-05  0.15677899E-04 -0.28910776E-05 -0.50196967E-05
  0.24340372E-05 -0.64253173E-05  0.42476966E-04 -0.31855788E-04 -0.34291268E-04
 -0.12879204E-04 -0.18875656E-04  0.48649446E-04 -0.63239019E-05 -0.45301301E-04
 -0.51960495E-06  0.10238962E-05  0.26601452E-05 -0.43316257E-06  0.13087390E-05
  0.70277918E-06 -0.85642923E-07 -0.21038469E-05 -0.21637939E-05 -0.22482640E-04
 -0.13894584E-04  0.29292739E-04  0.58390648E-05  0.22787644E-04 -0.67887762E-05
 -0.31910475E-05  0.10683188E-04 -0.25308336E-04 -0.16900529E-05 -0.74805586E-06
  0.31949739E-05  0.12549334E-05 -0.45086862E-05 -0.94381173E-06  0.74072800E-06
  0.10360335E-06 -0.11849382E-05 -0.89639134E-06 -0.86760840E-07  0.17825930E-05
  0.20260451E-05 -0.57864136E-07 -0.66788195E-06 -0.36597131E-06  0.14983918E-05
 -0.37080516E-06  0.97625997E-07 -0.18073115E-05 -0.53522468E-06  0.51404109E-06
  0.31255374E-05 -0.78126976E-06 -0.66442355E-06  0.76179363E-06  0.23069832E-06
  0.50361167E-06 -0.19649361E-05 -0.30200342E-06  0.11976578E-05 -0.27981949E-05
  0.19356884E-05 -0.61618294E-06  0.81814500E-06 -0.22183482E-05  0.22159632E-05
  0.10410384E-05 -0.47764428E-06  0.31742283E-05 -0.28186633E-05 -0.45374244E-06
  0.12373819E-05  0.33272045E-05 -0.19331605E-05 -0.17321130E-04 -0.49812753E-05
 -0.21774902E-04  0.57189339E-05  0.42110927E-05  0.85923341E-04  0.34254618E-04
 -0.23635165E-07  0.14609136E-05  0.16606094E-05 -0.23429403E-06  0.25950025E-06
 -0.33125728E-06  0.35490375E-06 -0.10351897E-05 -0.75427842E-06 -0.94169633E-06
 -0.21523464E-05  0.33223048E-04  0.17757809E-04 -0.18513853E-05 -0.42376555E-04
  0.29369054E-04  0.13349312E-04  0.67497925E-05 -0.13138120E-04 -0.14994511E-04

  0.38128121E-05  0.89470661E-05  0.15515410E-04 -0.91915904E-05 -0.94051881E-05
 -0.41190684E-05  0.14399945E-04 -0.11829146E-04  0.18562278E-04 -0.93435854E-05
  0.28988456E-04  0.25972403E-04 -0.14072735E-04  0.34095757E-04 -0.17816373E-05
  0.36598637E-05  0.58139439E-05  0.45681665E-05  0.37102814E-03  0.11320540E-03
  0.15765257E-03  0.49143595E-03 -0.12163598E-04 -0.13559991E-03  0.35017520E-03
  0.68910434E-04  0.17275294E-04  0.25402041E-04 -0.18514478E-04  0.69537478E-05
  0.16500216E-04 -0.17923240E-04 -0.25132101E-04 -0.84238520E-05  0.45957543E-05
 -0.21025684E-05 -0.94776061E-04 -0.91719374E-05  0.15508081E-03  0.78360125E-04
 -0.61303909E-04  0.26201833E-03  0.72264512E-04  0.15185988E-03  0.22061309E-03
 -0.55921047E-06  0.31379523E-04 -0.53235119E-05 -0.24878606E-04 -0.61211589E-05
  0.41097611E-05  0.18649709E-05 -0.18495308E-04 -0.10114951E-04 -0.53295953E-05
 -0.16346332E-04 -0.19641305E-04  0.44898691E-05 -0.68997480E-06 -0.83457664E-05
 -0.55477732E-05 -0.95465865E-05  0.28149241E-05 -0.69005871E-05  0.61019565E-05
  0.77411614E-05  0.31345236E-05  0.33369722E-04 -0.18824407E-04 -0.26340377E-05
  0.96468223E-05 -0.35187312E-06  0.11714256E-04  0.95768179E-05 -0.36680512E-05
  0.22688459E-04 -0.46650840E-04  0.12669882E-04 -0.25811165E-05  0.94065642E-05
 -0.39103059E-05 -0.11146076E-05  0.35354785E-05 -0.30387949E-04 -0.11261731E-04
  0.49728708E-05 -0.46147133E-05  0.26098571E-05 -0.17532200E-04  0.39265353E-04
 -0.20502432E-03  0.41442764E-03  0.38414924E-04 -0.14443774E-03  0.65450726E-03
 -0.49595237E-04 -0.20757710E-04 -0.46561167E-05 -0.56544367E-04 -0.11314627E-03
 -0.53421478E-04 -0.14134037E-04  0.51593482E-05  0.54294374E-05 -0.16209145E-04
  0.78760274E-04  0.84470514E-04  0.22162837E-04  0.43445843E-02 -0.42373937E-03
 -0.10497198E-02  0.52746319E-03 -0.20850333E-03 -0.15409621E-03  0.42146680E-03
  0.48410940E-03 -0.37421064E-03  0.32689156E-04  0.41699028E-04 -0.43006716E-05
  0.32526491E-04 -0.43645231E-04  0.35396459E-04 -0.10190208E-04 -0.42562072E-05
 -0.32639469E-04  0.60848745E-03 -0.81985655E-04 -0.29038026E-03 -0.60218370E-03
 -0.11240396E-03  0.57646625E-04  0.67187947E-03 -0.11840927E-03 -0.20769022E-03
 -0.85098146E-06 -0.52092273E-06  0.14035087E-05 -0.14535564E-04  0.99259165E-05
  0.20012945E-04 -0.13475041E-04 -0.88572319E-05 -0.23598659E-04  0.65167935E-05
 -0.71919132E-04  0.38889064E-03 -0.34581056E-04 -0.17657948E-04  0.15836616E-04
 -0.34181273E-03  0.19985809E-03 -0.22302285E-04  0.59662747E-05  0.53873780E-05
  0.67468480E-05 -0.10824367E-05  0.12523540E-04 -0.11239853E-04  0.91737871E-05
 -0.77519656E-05 -0.33984108E-05 -0.10932558E-04 -0.21094379E-04 -0.15464089E-04
  0.25048051E-05  0.11343357E-04  0.30427697E-04 -0.12314716E-04 -0.59736433E-05
 -0.50403660E-05  0.56827542E-05 -0.92201825E-05 -0.17394336E-04 -0.14535778E-04
  0.17917114E-04  0.19343075E-05 -0.82560902E-06  0.66233739E-05  0.91403765E-05
 -0.94494526E-06  0.18668057E-04 -0.22049719E-04 -0.40888533E-05  0.14647589E-04
 -0.13922451E-04  0.74082334E-05 -0.60649973E-05  0.30823498E-04  0.11102168E-04
  0.10515550E-04  0.14521444E-04  0.18335492E-04  0.98469505E-05  0.76314014E-05
  0.28546608E-04  0.13380139E-04  0.14268955E-04 -0.22782304E-03  0.30344906E-04
  0.38913005E-03 -0.48903416E-04  0.19865290E-03  0.45549128E-04  0.51698067E-04
  0.28339779E-03  0.13241800E-03 -0.54166780E-05  0.14601152E-04  0.78072601E-06
 -0.12701098E-05 -0.39365044E-04  0.30992020E-04  0.86065230E-05 -0.20900088E-05
 -0.40847022E-06 -0.21324825E-03  0.10396001E-03 -0.47699614E-03  0.16169709E-04
  0.46610152E-04  0.40561393E-03 -0.12079038E-03  0.24161174E-03 -0.25220926E-03

  0.10991260E-04 -0.45124742E-05  0.18350531E-04 -0.38020268E-05  0.25237762E-04
 -0.14797521E-04  0.11416735E-04  0.12365044E-04 -0.51986795E-05 -0.17739630E-04
 -0.23987059E-04 -0.97534009E-05  0.73885161E-05 -0.38046198E-05 -0.38759847E-04
 -0.79256713E-06  0.15146978E-04 -0.66958058E-05  0.21232917E-04  0.22447557E-03
  0.56652293E-04 -0.32932934E-03  0.21503774E-03 -0.13870670E-03  0.13928975E-03
 -0.38434579E-03  0.12885823E-03 -0.17866904E-04  0.15066625E-04  0.24784942E-05
 -0.17467489E-04 -0.10978695E-04 -0.15396899E-04 -0.59064187E-05 -0.36906037E-05
  0.98518456E-05  0.12989986E-03 -0.14137265E-03  0.16283449E-03 -0.12521576E-03
  0.17898596E-03 -0.14555280E-03  0.18477814E-03 -0.13481208E-03  0.64676888E-04
  0.10235160E-04  0.39985485E-04 -0.13532634E-05  0.26425283E-05 -0.49499579E-04
  0.16307849E-04 -0.98345826E-05  0.10614552E-04  0.13362164E-04  0.36206719E-06
 -0.41710944E-04  0.80762525E-05 -0.46801876E-05 -0.29961305E-04 -0.19326870E-04
 -0.67079992E-05 -0.31093931E-05  0.35091596E-05 -0.27396983E-06  0.19028828E-04
  0.70309969E-05  0.60200762E-05 -0.19393871E-04 -0.64842414E-05  0.20552908E-05
  0.42216912E-06 -0.12876905E-04 -0.10494343E-04  0.52797640E-04  0.50412523E-07
 -0.25587855E-04  0.98056692E-04 -0.64408307E-05  0.13399793E-04 -0.37597815E-05
 -0.87628449E-06  0.23522977E-04  0.30558213E-05 -0.14714554E-04 -0.11147832E-04
 -0.73523112E-04  0.37641203E-04 -0.50781631E-04 -0.92886054E-05 -0.34278601E-04
  0.28581181E-03 -0.98096070E-05 -0.27873295E-03  0.28515496E-04 -0.13354075E-03
 -0.12863410E-03 -0.19084784E-04  0.11282359E-03 -0.63998382E-04  0.45597725E-04
  0.16254879E-03  0.18544841E-03  0.88420042E-04  0.12976047E-03 -0.86194418E-04
  0.73103316E-05 -0.18144345E-04 -0.14050602E-03 -0.42373937E-03  0.41972220E-02
  0.16395322E-02 -0.23556871E-02  0.80032649E-03  0.23950405E-03  0.10334709E-03
  0.53613772E-04  0.11594754E-02  0.91430832E-06  0.37839707E-04  0.26977228E-04
  0.56298465E-06 -0.32485869E-04 -0.31001694E-04 -0.65591492E-06 -0.61828385E-06
  0.11493212E-04  0.12401248E-03 -0.26362417E-04 -0.15904347E-04 -0.24772221E-03
  0.10139407E-02  0.15327666E-03 -0.37569657E-03 -0.20733809E-04 -0.49580095E-05
  0.30985451E-05 -0.42693505E-04 -0.12545870E-04 -0.17245661E-05 -0.14918846E-05
 -0.16218944E-04 -0.88826459E-05  0.71532051E-05 -0.46638986E-05  0.18831881E-03
 -0.96864622E-04 -0.20960671E-03 -0.14681752E-03 -0.15067440E-03 -0.15916465E-04
  0.14468586E-04 -0.45132769E-04  0.21086367E-03  0.67830010E-05 -0.22052844E-04
  0.22748342E-05 -0.15681073E-04  0.63650978E-05  0.13963277E-04 -0.18346717E-04
  0.75641016E-05 -0.17376380E-04 -0.29216143E-05  0.60112750E-04 -0.29036728E-04
 -0.10953321E-04 -0.59951646E-04  0.21823396E-04 -0.14581016E-05 -0.99224129E-05
 -0.15357598E-04 -0.97171775E-05  0.34141399E-04  0.17693215E-04 -0.72440700E-05
  0.28321581E-05 -0.12594600E-04  0.14605146E-04 -0.56139518E-05  0.24769331E-05
 -0.66648747E-05  0.13254621E-04  0.97767846E-05 -0.15815927E-04  0.81900139E-05
 -0.11579371E-04  0.28214750E-05  0.71052044E-05  0.16368704E-04 -0.25565988E-04
  0.15219357E-04  0.61631745E-05 -0.20400245E-04  0.10099135E-05  0.58676743E-05
 -0.12039309E-04 -0.15215639E-04  0.92916659E-06  0.14544892E-03  0.31892802E-03
  0.29760615E-03  0.85524637E-04 -0.14542718E-03 -0.62848570E-05 -0.41721242E-03
 -0.26434213E-03  0.28304153E-03 -0.16750106E-04 -0.18320258E-04  0.18668949E-05
 -0.23348619E-04  0.21492331E-05  0.56833281E-05  0.16049117E-04 -0.28277749E-05
  0.12440630E-04 -0.26858224E-04 -0.33361921E-03 -0.41418278E-05 -0.35865828E-03
 -0.35367606E-03 -0.86780537E-04 -0.43577382E-03 -0.25575041E-04  0.10773796E-03

  0.83398990E-06 -0.44510809E-04  0.45129390E-04 -0.20332281E-05 -0.39886440E-04
 -0.17470095E-04  0.90175369E-06  0.71842185E-05 -0.60009064E-05 -0.79329823E-05
 -0.65334088E-05 -0.52754254E-04 -0.10240448E-04 -0.20717793E-04  0.50256413E-04
  0.99749514E-05  0.12581759E-04  0.19744743E-04  0.34263032E-03  0.56314227E-04
  0.29650312E-03 -0.84448414E-03  0.36539294E-03  0.13853542E-03  0.16122468E-03
 -0.35684842E-03  0.59010770E-03 -0.20120634E-05  0.10957015E-05  0.54139917E-04
 -0.37141019E-04 -0.16214838E-04  0.53653014E-04 -0.15108110E-04  0.16505403E-05
 -0.14753625E-04  0.14456491E-03 -0.26729872E-03 -0.35817412E-03 -0.23097430E-04
  0.33492620E-03 -0.24981795E-03  0.29858252E-03 -0.15814599E-03  0.18184648E-03
 -0.77891249E-06 -0.17044911E-04 -0.24989969E-04 -0.15728826E-04  0.39025410E-05
 -0.34548307E-04 -0.61244487E-05 -0.97686869E-06  0.15845743E-04 -0.12647942E-04
 -0.22369044E-04  0.72023793E-05 -0.98255130E-05 -0.28717334E-04 -0.34555626E-05
  0.17118934E-05 -0.43692043E-05 -0.45648514E-05  0.12660892E-04 -0.79224146E-05
  0.15701014E-05 -0.11413604E-04 -0.97806307E-05  0.48760850E-05  0.11531638E-04
 -0.33693850E-05  0.49976685E-05 -0.34727112E-05  0.30651587E-04 -0.16727540E-04
 -0.18457668E-06 -0.70388624E-05 -0.72853065E-05 -0.74470686E-05  0.78626714E-05
 -0.97453226E-05 -0.14041173E-04  0.43783523E-05  0.21102636E-04 -0.81494897E-05
 -0.55151472E-04  0.12707709E-04 -0.27913769E-04 -0.19379539E-04 -0.36084223E-04
  0.27442880E-03 -0.23629835E-03 -0.15772365E-03 -0.39084932E-04 -0.18326860E-03
  0.18457565E-03 -0.90760174E-05 -0.11804499E-03 -0.14124583E-04  0.82348805E-04
  0.38753283E-03  0.12910238E-03  0.14826067E-03 -0.16594731E-03  0.13902188E-03
 -0.27529561E-04 -0.19637511E-04 -0.20239539E-03 -0.10497198E-02  0.16395322E-02
  0.78282258E-02 -0.37690553E-02 -0.48351981E-03  0.19220256E-02 -0.30624001E-03
 -0.24284262E-03  0.11803692E-02 -0.36741658E-04 -0.11785576E-04  0.61112286E-04
 -0.73088908E-05  0.64260718E-04 -0.13084327E-03 -0.70919839E-05  0.25428923E-04
  0.18603617E-04 -0.13090688E-03 -0.35737130E-03  0.52918299E-03 -0.92372778E-04
  0.74819584E-03 -0.73757448E-04 -0.45845018E-03 -0.26741902E-03  0.95393904E-03
 -0.18068184E-05 -0.21527782E-04 -0.33713262E-04  0.28064647E-04 -0.14780870E-04
 -0.71585617E-04 -0.43365028E-05  0.17507225E-04  0.27859970E-04  0.51167409E-03
  0.64533069E-05 -0.32157401E-03  0.37446352E-04 -0.63865825E-03  0.26906345E-04
  0.62559623E-04 -0.26052934E-03 -0.35683654E-03  0.85706848E-05  0.26027784E-04
  0.42463056E-05 -0.35508404E-04  0.39356303E-04  0.14230605E-05 -0.48485918E-06
 -0.75972833E-05 -0.91557920E-05 -0.13609551E-04  0.28421136E-04 -0.29173554E-04
 -0.33113680E-04  0.24248967E-04 -0.54094990E-04 -0.48351452E-05  0.17726372E-04
  0.51663351E-05 -0.11096779E-04  0.10007331E-04  0.36481976E-04  0.18358274E-06
 -0.52695748E-04  0.34112642E-04  0.17709154E-04 -0.32286460E-05 -0.10299792E-04
 -0.24863483E-04 -0.58319521E-05  0.22560139E-04 -0.14543135E-04  0.12842967E-04
 -0.31651472E-04  0.93588037E-05 -0.12196030E-04  0.94719497E-05  0.39261806E-05
  0.10649785E-04 -0.23623830E-04 -0.10057080E-04 -0.31578233E-04  0.16872526E-04
  0.14194727E-04  0.93284084E-05  0.37547702E-06  0.11602951E-03  0.42471541E-03
  0.23080113E-03 -0.13162872E-03 -0.51740310E-03  0.13962936E-02 -0.16710312E-03
 -0.17116959E-03 -0.48857683E-04 -0.15521156E-04 -0.27539800E-04  0.24371166E-05
 -0.14105268E-04  0.59895259E-05 -0.25637656E-04  0.11390328E-04  0.10590099E-04
  0.30754113E-04 -0.43204721E-03 -0.46919566E-03 -0.10048078E-03  0.12455477E-03
 -0.12232208E-03 -0.53242427E-03 -0.57049425E-04  0.19527908E-03  0.36635923E-03

  0.68761926E-04  0.26644379E-04 -0.14707396E-04  0.13803136E-04  0.80913582E-04
  0.29997299E-04  0.31426652E-04 -0.34462101E-04 -0.30544081E-06  0.37917621E-04
  0.29399880E-04  0.18610214E-04 -0.32579894E-04  0.69819794E-04  0.10230261E-04
 -0.96898188E-05 -0.66445722E-04  0.82768449E-04  0.35400229E-03  0.87648022E-03
 -0.33206111E-04  0.40661121E-02 -0.81693577E-03 -0.67146361E-03 -0.24646208E-03
 -0.18554559E-03 -0.33180235E-03 -0.48261074E-05 -0.82560532E-05 -0.36672558E-04
  0.12654239E-04  0.46148803E-04  0.52156903E-04  0.28594988E-04  0.57730173E-05
  0.20018936E-04 -0.23109935E-03  0.55831015E-04  0.32014226E-03  0.26944926E-03
  0.48065378E-03  0.37011395E-03 -0.17879268E-03  0.48499272E-03  0.50334155E-03
  0.29244277E-04  0.64891465E-05  0.99450206E-05  0.56310649E-04  0.26294847E-04
 -0.92292402E-05 -0.12968434E-04 -0.95149077E-06 -0.16024115E-04  0.12122153E-04
  0.13088857E-04  0.43656338E-04  0.26112523E-04 -0.23809162E-04  0.20282919E-04
 -0.86968889E-05  0.12573262E-04 -0.30473583E-04  0.17700469E-04 -0.21621270E-04
 -0.53534708E-05  0.62943765E-04 -0.41200955E-04  0.30513450E-04 -0.35235093E-04
  0.42420101E-05 -0.11553413E-04  0.30032413E-04 -0.48187210E-04  0.37377218E-05
  0.99096281E-04 -0.66693010E-05  0.15697045E-04  0.16547584E-04  0.22776525E-04
 -0.11992397E-05  0.54373461E-04 -0.38621725E-04  0.11724256E-04 -0.30417506E-04
  0.18029765E-03 -0.13107870E-04 -0.28812020E-05 -0.95462257E-05 -0.31037278E-04
 -0.95542250E-04 -0.18953256E-03  0.19680690E-03 -0.18237143E-03 -0.34410776E-04
 -0.68387627E-03 -0.41323063E-03  0.40862411E-04  0.73561179E-05 -0.77375526E-04
 -0.52751772E-03 -0.37348999E-03 -0.32431993E-03  0.81056574E-04 -0.29598048E-04
  0.16029765E-05  0.15726139E-06  0.36425418E-03  0.52746319E-03 -0.23556871E-02
 -0.37690553E-02  0.25134153E-01 -0.47100642E-02 -0.89074737E-02  0.61851294E-04
 -0.13185205E-02 -0.32396941E-02  0.18395164E-04 -0.17970480E-04 -0.65146460E-04
 -0.43619772E-04 -0.41853787E-04  0.14279349E-03 -0.53716361E-05 -0.39291978E-04
 -0.19809226E-04 -0.90695465E-03  0.60027013E-04  0.12636586E-03 -0.69899968E-03
  0.28149186E-03  0.37411839E-03 -0.31808202E-03 -0.64568514E-03 -0.70850920E-03
 -0.16197072E-04  0.20837239E-04 -0.40961311E-05  0.16547329E-04  0.19450510E-04
  0.50149857E-04  0.30746599E-04 -0.37236381E-04 -0.27562209E-04 -0.71730520E-03
  0.94042123E-04  0.91341302E-03  0.28957316E-03  0.66668728E-03  0.20806642E-03
  0.61754465E-03  0.31949111E-03  0.25106443E-03 -0.51036227E-05  0.22989246E-04
  0.38533869E-04  0.13402578E-04 -0.35344039E-04 -0.18969921E-04 -0.48432882E-04
 -0.70032402E-05  0.30857576E-04 -0.40960652E-04  0.44536699E-04  0.73693731E-05
  0.92506100E-04  0.29317722E-04 -0.35250346E-05  0.21503155E-06  0.62667992E-04
  0.98101748E-05 -0.15281722E-04 -0.16916474E-04 -0.12214509E-04  0.83692932E-04
  0.22590419E-04  0.60137418E-05 -0.98216404E-05  0.39416382E-04 -0.12360818E-04
  0.19044885E-04 -0.27606231E-04  0.29209027E-04  0.60723256E-04 -0.20934125E-04
  0.26251410E-04  0.92573220E-05  0.28157780E-04 -0.20256953E-04  0.32656178E-04
  0.79684183E-04 -0.21079686E-04  0.35072053E-04 -0.72718912E-05  0.43295946E-04
  0.47731997E-04  0.49519028E-04  0.92992370E-05 -0.75343669E-03  0.41676035E-03
  0.32749649E-04  0.13930166E-02 -0.32821112E-03  0.13359272E-02  0.60234569E-03
 -0.27800419E-03 -0.76992664E-04  0.39216418E-06 -0.83319228E-05 -0.17521418E-04
 -0.76832263E-04  0.55399231E-04  0.35448491E-04 -0.21192683E-04 -0.15734571E-05
  0.34803563E-06  0.20361213E-03 -0.15236362E-03  0.11698270E-03 -0.83623021E-03
  0.90193966E-04  0.97299459E-04 -0.22924622E-03 -0.21733804E-04 -0.83050798E-04

 -0.19582749E-04 -0.27226291E-04 -0.14841937E-04 -0.73973214E-05  0.31917261E-04
 -0.94458047E-05 -0.63084180E-06  0.83947684E-05  0.28475591E-04 -0.96617758E-05
  0.37370887E-04  0.25645632E-04  0.96960498E-05 -0.27393053E-04 -0.17160330E-04
  0.18470386E-04  0.17575508E-04 -0.39646936E-04 -0.40786169E-04  0.13355626E-03
  0.13021543E-03 -0.31691441E-03 -0.41356368E-03  0.28425149E-04 -0.16167539E-03
 -0.10104027E-03  0.28834416E-03 -0.16808543E-04  0.16684760E-04 -0.20453100E-04
  0.41406727E-05 -0.22519072E-04 -0.50128273E-04 -0.51896222E-05 -0.17152949E-04
 -0.23779623E-04  0.15299027E-03  0.14472552E-03 -0.15994086E-04  0.12993923E-03
 -0.36498145E-03  0.28196179E-03  0.19726311E-03  0.25367118E-03 -0.11796948E-03
 -0.42094662E-05 -0.30825357E-04  0.14310012E-04  0.70905392E-05 -0.31192988E-04
  0.32963753E-05  0.26927269E-04 -0.99609122E-06  0.31872218E-04  0.41858943E-04
  0.41070695E-04 -0.15083506E-04 -0.16029728E-04  0.86012016E-04 -0.13744421E-04
 -0.17221798E-04  0.63775215E-05  0.24601968E-04  0.96312289E-05  0.14559916E-04
  0.11207644E-04 -0.16142488E-04  0.33814823E-04 -0.86909805E-05 -0.79641654E-05
 -0.21982573E-05 -0.96006597E-05 -0.24562999E-04  0.10247253E-03 -0.26508840E-05
 -0.37174400E-04  0.74343640E-04 -0.23588287E-05 -0.14994890E-04  0.58891119E-05
 -0.93676034E-05 -0.77963071E-05  0.80529186E-05 -0.16580222E-04  0.28993986E-04
 -0.12289141E-03  0.30387698E-04  0.53138604E-05  0.17891235E-05  0.24022597E-04
 -0.12115290E-04 -0.34007231E-04 -0.93408434E-04  0.40663134E-04  0.15276098E-03
  0.27957120E-03 -0.12938710E-03 -0.24691373E-04  0.27592984E-03  0.28663313E-04
 -0.76005402E-04  0.16597822E-03  0.17642124E-04  0.23340966E-03 -0.15209198E-03
  0.19782382E-04 -0.24731419E-04 -0.21296913E-04 -0.20850333E-03  0.80032649E-03
 -0.48351981E-03 -0.47100642E-02  0.66662896E-02 -0.28785568E-02 -0.19128417E-03
  0.65336488E-03  0.11835106E-02 -0.23557961E-04  0.86892878E-04 -0.24401492E-04
  0.19304980E-04  0.37346636E-04 -0.34532334E-04  0.11847697E-04 -0.27771105E-04
  0.27584101E-04  0.44353261E-03 -0.11400350E-03 -0.16604180E-04  0.34352490E-03
 -0.16106290E-02 -0.55278123E-05  0.28999448E-03  0.34059600E-03 -0.21901995E-03
  0.80618151E-05 -0.20447378E-04 -0.17177077E-04  0.14823995E-04 -0.11095946E-04
 -0.65016224E-05  0.20622606E-05  0.18411164E-04  0.16420402E-04  0.15327018E-03
  0.33472191E-03 -0.25033559E-03 -0.46748427E-04 -0.46910356E-03  0.54965145E-04
 -0.21296998E-03 -0.67117838E-04 -0.94316796E-04  0.47886584E-06 -0.23815578E-05
 -0.60317256E-06 -0.27097972E-05  0.10977485E-04  0.10022956E-05  0.13027839E-04
  0.27455650E-05 -0.11726700E-04  0.17774433E-04 -0.34213077E-04  0.14013825E-04
  0.16252560E-04 -0.12882881E-03  0.32676682E-04 -0.67490071E-06 -0.11749815E-04
  0.78917778E-05  0.21504663E-05  0.19367259E-04 -0.12035820E-04 -0.13257112E-04
 -0.31797877E-04  0.10701238E-04  0.11237508E-04 -0.64906260E-05 -0.47776333E-05
 -0.23993739E-04  0.26184021E-05 -0.21799975E-04 -0.43031032E-05 -0.27289653E-04
  0.25830624E-04 -0.29582821E-05  0.38764196E-05 -0.14440091E-04 -0.20332509E-04
 -0.27530259E-04  0.25046892E-04 -0.17174596E-04  0.79047757E-04 -0.86649239E-05
 -0.18432425E-04 -0.40962979E-05 -0.28444214E-04  0.24793514E-03 -0.15909880E-03
  0.30540500E-03 -0.38956023E-03  0.66889516E-03 -0.12527101E-02 -0.19300681E-04
  0.30907592E-04  0.42210501E-03  0.11734001E-04  0.46083949E-05  0.15786959E-04
  0.22542491E-04 -0.13518117E-04  0.59704920E-05  0.62274357E-05  0.57889335E-05
  0.20298521E-04 -0.11723448E-03  0.13882294E-03  0.36392032E-05 -0.62970636E-04
  0.17145891E-03  0.62794285E-04 -0.24467306E-03  0.52463432E-04 -0.31203742E-04

  0.17496395E-05  0.21716623E-04  0.22568083E-04  0.36534692E-05 -0.63895086E-04
 -0.21091897E-04 -0.41832401E-05 -0.20860149E-04 -0.40507116E-04 -0.35578282E-04
  0.28251222E-04 -0.62855048E-04 -0.95022341E-05 -0.88901820E-05  0.24168644E-04
 -0.26150307E-04 -0.21165884E-05 -0.20522311E-05  0.40993401E-03  0.15749022E-03
  0.14988593E-03 -0.12121826E-02  0.41438868E-03 -0.80071493E-03 -0.44313573E-03
 -0.48764108E-03 -0.41895742E-03  0.10904575E-04 -0.14935279E-04 -0.25759578E-04
 -0.10169853E-04 -0.33682363E-04  0.96304901E-04  0.12968027E-04  0.18834991E-04
 -0.50577580E-04 -0.32905022E-04  0.37027533E-04 -0.36421018E-03 -0.18090408E-03
  0.57328518E-03 -0.11408286E-02 -0.77976853E-04 -0.31310865E-03 -0.41717923E-04
 -0.17557701E-04  0.80544540E-04 -0.44447841E-06 -0.13243070E-04  0.15384702E-04
  0.22779236E-04 -0.68713640E-05  0.14880800E-04  0.11278875E-04 -0.24984282E-05
 -0.66952502E-04 -0.17053784E-04  0.21469213E-04 -0.37903253E-04 -0.32684993E-04
  0.14879021E-04 -0.91280953E-05  0.20802359E-04 -0.30236723E-04  0.41987892E-05
  0.10964377E-04  0.94654912E-05  0.10734597E-04 -0.16601273E-04  0.24751512E-04
  0.80149901E-05  0.20764792E-04  0.26571611E-04  0.24466978E-04 -0.35317040E-04
 -0.18174856E-04 -0.49461803E-04 -0.40490989E-04  0.10771906E-04 -0.56723667E-04
 -0.19422737E-05 -0.38887147E-04 -0.17177294E-04  0.48901727E-04  0.32969975E-04
 -0.31818689E-04 -0.85241374E-04  0.40537538E-05 -0.12365752E-05  0.11254934E-04
 -0.12290597E-03  0.41113925E-03  0.48273508E-03 -0.18822815E-03  0.82106647E-03
 -0.19193584E-03 -0.86023260E-04  0.66546180E-05 -0.14890116E-03  0.64197184E-04
  0.43939761E-03 -0.66076532E-04  0.12622827E-03 -0.34355593E-03  0.42175851E-03
 -0.89899743E-04  0.21299960E-04 -0.17910179E-04 -0.15409621E-03  0.23950405E-03
  0.19220256E-02 -0.89074737E-02 -0.28785568E-02  0.22306372E-01 -0.55746211E-03
 -0.28184497E-02  0.26535344E-02 -0.16956887E-04 -0.17673036E-04  0.52292481E-04
  0.16888166E-05  0.54307595E-04 -0.11492515E-05 -0.38459451E-04  0.86250016E-04
  0.67756183E-04  0.52976844E-03 -0.30677862E-03 -0.15554110E-03 -0.12609149E-03
  0.93539285E-03  0.28194395E-03  0.24322339E-03  0.39667124E-03  0.58249641E-03
  0.15645466E-04 -0.14474665E-04  0.14570308E-03 -0.24707694E-04  0.19584356E-04
 -0.17374484E-04 -0.64194667E-06 -0.29269139E-04  0.36637659E-04  0.25631180E-04
 -0.48407132E-03  0.37208610E-04 -0.24988010E-04  0.60064943E-04 -0.30808598E-03
 -0.24880788E-03 -0.44402508E-04  0.14900987E-03 -0.60912571E-05 -0.38904509E-05
  0.35039812E-05 -0.66594928E-05 -0.62511575E-05  0.15296443E-04  0.22999549E-04
  0.20452002E-04 -0.80341958E-05 -0.14470631E-04 -0.33231407E-04 -0.12996908E-03
 -0.41546991E-04  0.46451458E-04 -0.59180091E-04 -0.21262194E-05 -0.16300303E-04
 -0.42078351E-04  0.13953549E-04  0.34375513E-04  0.75175373E-04 -0.14081822E-04
  0.16313029E-04 -0.36729418E-04  0.98873928E-05 -0.58083872E-05  0.43417379E-05
  0.23328018E-04  0.17053680E-04 -0.67346773E-04 -0.20706898E-04  0.57789811E-04
 -0.10366633E-03 -0.21079798E-05  0.18047405E-04  0.28791769E-04 -0.19963517E-05
 -0.91650308E-05 -0.55550938E-05 -0.91314318E-05 -0.59202088E-04 -0.53635822E-04
 -0.17563045E-04 -0.61696913E-04  0.15289236E-04  0.71081627E-04 -0.62202829E-04
  0.36130617E-04 -0.48287083E-03 -0.67545431E-03  0.19970278E-02 -0.45877252E-03
 -0.42285056E-03 -0.37139794E-03 -0.37639513E-04  0.30306404E-04 -0.36824806E-05
  0.15637049E-04  0.18174177E-05 -0.28334520E-04  0.25041326E-04 -0.24250619E-04
 -0.13181851E-04  0.68558821E-03  0.34938569E-03 -0.59683879E-03 -0.32535819E-03
  0.14152875E-03 -0.38004949E-03  0.32120210E-03  0.24755204E-03 -0.20791497E-03

 -0.21919096E-04 -0.12135950E-04  0.47951334E-05  0.40217506E-05  0.42647972E-04
 -0.42015490E-05 -0.70284936E-05  0.12191337E-05  0.13671725E-04  0.50277630E-05
 -0.11369011E-04  0.29805355E-05  0.14938472E-04  0.94154986E-05 -0.37863368E-05
  0.11485031E-05  0.70009160E-05 -0.11617557E-04  0.30228666E-04 -0.21667406E-04
 -0.13840803E-03  0.28585872E-04  0.80375411E-04 -0.54255690E-04  0.24484392E-03
  0.10295321E-03  0.10089670E-03 -0.75339433E-05  0.11508663E-04  0.89824346E-05
 -0.11293490E-05 -0.28730169E-04  0.17949970E-04 -0.12600423E-04 -0.59376891E-05
  0.12578577E-04  0.11495018E-03  0.18558423E-03  0.11070280E-03  0.64725380E-04
  0.12700053E-03  0.28297551E-03  0.11150644E-03  0.29697794E-04  0.33595377E-03
  0.92704062E-05  0.80734108E-05 -0.68442020E-05  0.99331957E-05 -0.24835832E-04
  0.14065160E-04  0.20103823E-05  0.47091969E-05 -0.88148419E-05 -0.31121191E-05
  0.17747856E-04  0.13115214E-04 -0.12149993E-04 -0.97093728E-05  0.48711671E-05
 -0.13209933E-05  0.11297536E-05 -0.33926738E-05  0.54505419E-05  0.25121420E-04
  0.27561951E-05 -0.14590250E-05  0.24834880E-05  0.28981959E-05 -0.15844255E-04
 -0.18960560E-05  0.25637005E-05  0.84454456E-05 -0.48813071E-05  0.18900850E-05
  0.83632969E-06  0.28446216E-04 -0.11936882E-04  0.19158046E-04 -0.64385896E-06
  0.10892370E-04  0.19240845E-04 -0.24840433E-04 -0.31856026E-05  0.12479917E-04
 -0.10387143E-04 -0.65843636E-05 -0.53979476E-05 -0.71639421E-05  0.73968169E-05
  0.32658567E-04  0.19522185E-03  0.13027652E-03  0.82787466E-04  0.76637281E-04
 -0.64701254E-04 -0.57646422E-04 -0.12059991E-03  0.13399440E-03 -0.11790472E-03
 -0.53879144E-04 -0.91114438E-05  0.49260884E-05  0.45442358E-05  0.19181444E-05
  0.58318836E-04  0.84706669E-04 -0.10370427E-04  0.42146680E-03  0.10334709E-03
 -0.30624001E-03  0.61851294E-04 -0.19128417E-03 -0.55746211E-03  0.36769749E-02
  0.14582628E-02 -0.67970634E-03  0.36023328E-04  0.29030828E-04 -0.18989342E-04
 -0.15187216E-04 -0.13916905E-04  0.22900223E-04  0.83411075E-05  0.72674113E-05
 -0.37049493E-04 -0.30714734E-03  0.28763696E-03  0.24899392E-03  0.60633196E-04
  0.42237842E-03 -0.82873320E-04 -0.29112706E-03 -0.23322282E-04 -0.15342914E-04
  0.25243246E-05 -0.11225735E-04 -0.43158977E-05  0.10426561E-06 -0.24768281E-04
  0.10896496E-04  0.29190230E-05  0.62917990E-05 -0.14057771E-04 -0.21541608E-04
  0.33549595E-03  0.23911251E-04 -0.50008781E-04  0.36314408E-03 -0.11339154E-03
 -0.10763337E-03  0.12389826E-03  0.15951512E-03 -0.20939071E-05 -0.22491286E-04
 -0.77969825E-05 -0.71835611E-05  0.25566465E-04 -0.69131838E-05 -0.15721822E-04
 -0.88339911E-05  0.98061336E-05  0.11704279E-04  0.51423618E-05  0.50238002E-05
 -0.23277957E-05  0.10957351E-04  0.72750584E-05 -0.53258991E-05 -0.42360843E-05
  0.89822916E-05  0.13011194E-04  0.85322415E-05  0.91471522E-06 -0.96341370E-05
  0.39447560E-04  0.48810572E-05 -0.31852498E-05 -0.10766512E-05  0.17523870E-04
 -0.10507612E-04  0.10767478E-04  0.46773145E-05  0.68172921E-05 -0.19231671E-04
  0.73602526E-06  0.19266612E-04 -0.48196110E-05  0.11527049E-04 -0.43421759E-05
  0.25023882E-04 -0.23098771E-04 -0.18148876E-04  0.60640041E-04 -0.14096928E-04
 -0.15253070E-06 -0.14248736E-04 -0.71513135E-05  0.20162527E-03 -0.17688498E-04
  0.16080269E-03  0.28538313E-03  0.32181217E-03 -0.44962776E-03 -0.27214236E-03
 -0.14409592E-03  0.43529424E-04  0.10559644E-04 -0.25818634E-04 -0.83679060E-05
 -0.23104521E-06 -0.34737947E-04  0.39377871E-05  0.12179657E-04  0.57447155E-05
 -0.81757535E-05 -0.88344150E-05  0.89707103E-04  0.12817707E-03  0.44638798E-03
 -0.29759274E-03 -0.16411916E-03 -0.30739835E-04  0.39812226E-04  0.56244939E-04

 -0.14987409E-04 -0.12784168E-04  0.25615508E-04  0.10096238E-04  0.18463182E-05
 -0.35077421E-04 -0.45055089E-05 -0.10968560E-05  0.21724381E-04 -0.46313680E-05
  0.49888380E-04  0.19913111E-04 -0.18471828E-04  0.42909142E-04 -0.56201931E-04
  0.46905248E-05 -0.42428254E-05 -0.37714672E-04  0.32868176E-03  0.92982712E-04
  0.37639209E-03 -0.90779927E-03 -0.35505123E-03  0.53247247E-05  0.38860185E-04
 -0.84081919E-03 -0.34254468E-03 -0.32308287E-04  0.20319133E-05  0.12470747E-04
  0.14048467E-04 -0.45328499E-04  0.40933272E-04 -0.29132135E-04  0.25298625E-04
  0.34728654E-04 -0.50350570E-04 -0.19983866E-03 -0.10320296E-03 -0.18647426E-03
 -0.11636986E-03  0.55870958E-03  0.17098385E-05 -0.19621248E-03 -0.83218300E-04
  0.55377271E-05 -0.32488456E-04 -0.78620663E-05  0.19357656E-04  0.79377952E-05
 -0.33567131E-05  0.24700121E-04  0.18542127E-04  0.73041506E-05  0.78687934E-05
  0.11358610E-04  0.50121005E-04 -0.25988041E-04  0.70632677E-05  0.21310586E-04
 -0.11731183E-04 -0.19903438E-04  0.93188535E-05  0.14705355E-04  0.14763164E-04
  0.52343962E-05  0.13785685E-04 -0.30434481E-05  0.12951080E-04 -0.22671403E-04
  0.10237486E-04 -0.12645479E-04  0.62452751E-05 -0.14288594E-05  0.54941078E-04
 -0.10620058E-04  0.13569618E-04 -0.37079364E-04 -0.20927536E-04  0.95950469E-05
  0.21140953E-04  0.94696989E-05 -0.16243095E-04 -0.11823391E-04  0.50347655E-05
 -0.40720706E-04  0.41456501E-05 -0.21966141E-04 -0.13433460E-04  0.10418633E-04
  0.16037027E-03  0.10585032E-03  0.63490009E-04  0.63485690E-04  0.97859942E-04
  0.30856321E-03 -0.91018103E-04 -0.44525329E-04 -0.28415879E-03 -0.14965162E-03
 -0.92634093E-05  0.21238596E-04  0.85697826E-05  0.27200089E-04 -0.22015838E-04
  0.18500701E-03  0.61237726E-04 -0.40663956E-04  0.48410940E-03  0.53613772E-04
 -0.24284262E-03 -0.13185205E-02  0.65336488E-03 -0.28184497E-02  0.14582628E-02
  0.78708525E-02 -0.19841484E-03 -0.31095178E-04  0.12961551E-04 -0.96214827E-05
 -0.46390054E-04  0.30650133E-04  0.25578707E-04  0.41700940E-04 -0.22366207E-05
 -0.22981174E-04 -0.22606787E-04 -0.20096445E-03  0.34554616E-03  0.73442552E-04
 -0.28586448E-03  0.35515777E-03 -0.27071653E-03  0.84727169E-04 -0.33666600E-04
  0.64634783E-05  0.15850235E-04 -0.16114712E-04  0.23415124E-04 -0.89579262E-05
 -0.31654491E-04  0.27538151E-04  0.43403143E-04 -0.49983000E-05  0.71608103E-04
  0.43125087E-03 -0.46714355E-03 -0.10116151E-03 -0.10465831E-03 -0.14311178E-03
  0.94847056E-04  0.23378240E-04 -0.14210951E-03  0.28418597E-04 -0.39314062E-04
 -0.20740591E-04 -0.16065151E-05  0.30619741E-04 -0.11361378E-05 -0.17287537E-05
 -0.24756455E-04 -0.35213299E-05 -0.14913136E-04 -0.16248421E-04  0.17005573E-04
  0.50020546E-05 -0.13088999E-04  0.23416237E-04 -0.88200282E-06 -0.13427384E-04
  0.78510700E-05  0.25368510E-04 -0.74452333E-05 -0.78661331E-05  0.96024938E-06
  0.10573312E-04  0.17399658E-04 -0.14234826E-04  0.50328229E-05  0.81632259E-05
 -0.28542456E-04  0.86427682E-05  0.48158808E-05  0.19600893E-04  0.36400039E-05
  0.15711654E-04  0.30487226E-05 -0.25397386E-04  0.92162929E-05  0.87530277E-05
 -0.10624049E-04  0.19249084E-05  0.57512514E-05 -0.37429301E-05 -0.29473909E-04
 -0.25133511E-05 -0.11265894E-04  0.19408527E-05  0.13321310E-04  0.14473426E-03
 -0.39775362E-03 -0.13362589E-03  0.49047484E-04 -0.83858811E-03  0.47005395E-04
  0.70546715E-03 -0.19175231E-03 -0.68823042E-05 -0.12349455E-04 -0.40256481E-04
  0.84022245E-05 -0.26132819E-04 -0.14253026E-04  0.11730001E-04 -0.59055016E-05
  0.41730707E-05 -0.40667106E-04 -0.27895775E-04  0.48058501E-03  0.94389914E-04
 -0.16314155E-03  0.34587092E-03  0.22243476E-03 -0.96721301E-03 -0.12101465E-03

 -0.90399341E-05 -0.65222102E-05 -0.24322834E-04  0.10431077E-04 -0.17445922E-04
 -0.22921488E-04 -0.44567632E-05  0.13306333E-04 -0.86198634E-05 -0.13660838E-04
 -0.20120030E-04 -0.65338205E-05 -0.92293491E-05  0.23291280E-04 -0.11095452E-04
  0.87616713E-05  0.17355691E-04 -0.47562072E-05 -0.32428476E-03 -0.18922539E-03
  0.19544225E-03 -0.97035273E-03  0.47307879E-03  0.13978479E-03  0.10781893E-03
 -0.13312659E-03  0.30349881E-03  0.39211394E-06  0.20774464E-04 -0.14788515E-04
 -0.16511651E-04 -0.11773626E-04 -0.20234971E-04 -0.10910834E-04 -0.97467685E-05
 -0.31985537E-04  0.48246263E-04 -0.92811144E-04  0.82792545E-04 -0.17138409E-03
  0.24262528E-04 -0.18842710E-03  0.13359911E-03 -0.12604190E-03 -0.27968542E-04
  0.99115534E-06 -0.18696765E-04  0.32310810E-04  0.61617715E-05  0.44340103E-05
  0.56393376E-06  0.84217048E-05  0.11653273E-04  0.30917104E-05  0.16594645E-04
 -0.11207723E-04  0.48514361E-05 -0.15147250E-04 -0.10201285E-04  0.32345086E-04
 -0.11777904E-04 -0.51553304E-05  0.20922905E-05  0.17184185E-05 -0.13969813E-04
 -0.11052300E-04 -0.61257540E-05 -0.13907627E-04 -0.23663167E-05  0.18184394E-04
  0.76831502E-05  0.12411074E-04 -0.15363683E-04  0.20568411E-04 -0.22251219E-04
 -0.16290029E-04 -0.12286542E-04 -0.80034931E-05  0.32357347E-05 -0.70188663E-05
  0.13277512E-04  0.15714713E-04  0.42039418E-04 -0.24578851E-04 -0.86309030E-05
 -0.45100238E-04  0.19310734E-04 -0.35157007E-04 -0.19581892E-05  0.30145340E-05
  0.25354775E-03 -0.27224795E-03 -0.15520971E-03  0.91999540E-04  0.99836056E-04
 -0.33203800E-03  0.58380866E-04  0.59531584E-04 -0.59024204E-05  0.60434340E-04
  0.22595312E-03  0.13275414E-03  0.49673456E-04  0.12004142E-03  0.80836033E-04
 -0.14601810E-04 -0.58049133E-05 -0.12255909E-03 -0.37421064E-03  0.11594754E-02
  0.11803692E-02 -0.32396941E-02  0.11835106E-02  0.26535344E-02 -0.67970634E-03
 -0.19841484E-03  0.54602369E-02 -0.32131914E-04 -0.10654346E-04  0.30536185E-04
 -0.96102984E-05  0.25536457E-04 -0.50214761E-04 -0.23206267E-04  0.53236856E-05
  0.25074780E-04  0.28813202E-03 -0.94397113E-04 -0.54655070E-04 -0.39203430E-03
  0.35498835E-03  0.38695594E-03 -0.17134166E-03  0.33864258E-03 -0.15099722E-03
  0.28608922E-04 -0.71014293E-05  0.36532858E-04  0.12981391E-04 -0.34882819E-04
 -0.33632435E-04 -0.65319436E-05  0.11703853E-04 -0.18620539E-04  0.79730582E-04
  0.16067986E-03 -0.13463963E-03 -0.43443227E-04 -0.17828164E-03  0.63675182E-04
  0.11103952E-03 -0.73992882E-04 -0.23897780E-03 -0.77002438E-05  0.61577394E-05
  0.67278271E-05 -0.70206415E-05  0.47167286E-05 -0.24858888E-05  0.34232715E-05
  0.44849835E-05 -0.26471108E-04 -0.57366894E-08 -0.54071765E-06 -0.15420780E-04
 -0.20165610E-04 -0.60639711E-05 -0.37646501E-05  0.86127721E-05 -0.23850376E-04
  0.54112449E-05  0.13976633E-05  0.11749289E-04  0.12262223E-04 -0.17510038E-05
 -0.36116302E-04 -0.65508859E-05  0.15161828E-04 -0.31155216E-06  0.68316994E-06
 -0.51350197E-05 -0.20597398E-04 -0.22349183E-04 -0.11704876E-04  0.29652356E-04
 -0.14112639E-04  0.77870223E-05  0.97367657E-05  0.59807141E-05 -0.21701396E-04
  0.24210150E-05  0.27994062E-04 -0.14327075E-04  0.21794737E-05 -0.17972857E-04
 -0.84457274E-06 -0.20387509E-04  0.17319057E-04  0.11915205E-03  0.99295008E-04
  0.58090273E-03 -0.20913762E-03 -0.26110522E-03  0.32250944E-03 -0.75234385E-04
  0.91308750E-05 -0.36193600E-03 -0.20107570E-04 -0.26193215E-04 -0.18446197E-04
 -0.28184040E-05  0.73000587E-05 -0.92840293E-05  0.81627031E-05 -0.16286186E-04
  0.23180596E-04  0.18432592E-04 -0.81740077E-04  0.46438632E-04 -0.55015917E-04
  0.74649449E-04  0.95922415E-04  0.12092488E-04 -0.21177076E-03 -0.14529355E-03

 -0.12808592E-05  0.10326407E-06 -0.53385247E-06 -0.16173810E-05  0.55480074E-05
 -0.45067038E-06 -0.59763472E-06 -0.10404025E-05  0.10059789E-05  0.17221450E-05
 -0.23037706E-05  0.22022782E-05  0.22879873E-05 -0.28564772E-05  0.21782437E-05
  0.19875769E-05  0.66391362E-06  0.16795804E-05 -0.12872145E-04  0.69218492E-05
 -0.12287078E-04  0.42758406E-04 -0.13850982E-04  0.28203132E-05  0.16674277E-04
  0.23884315E-04 -0.98800190E-06  0.22663066E-05  0.13211940E-05  0.15572439E-05
 -0.18091327E-05  0.13652120E-05 -0.60799969E-06  0.18384845E-05 -0.18689980E-05
  0.65918027E-06 -0.19082089E-04  0.60441243E-05 -0.10678978E-05  0.21211535E-04
 -0.23364178E-04  0.17419613E-04 -0.12883711E-04  0.93967340E-05  0.14604531E-04
  0.18611899E-06 -0.12595087E-05  0.81283258E-06 -0.27669442E-05  0.11968153E-05
  0.18712540E-05  0.38828541E-06 -0.55220272E-06  0.45929698E-06 -0.14534102E-05
  0.67069657E-06 -0.15547399E-06 -0.12769111E-05 -0.32110395E-05  0.12704994E-05
 -0.57966720E-06  0.25058771E-06  0.66122917E-07 -0.17165452E-06  0.11076717E-05
  0.21942162E-06 -0.42273479E-06 -0.86894696E-06  0.98837311E-07  0.85809248E-06
  0.12315454E-05  0.49793200E-06 -0.12517152E-05  0.46530119E-06 -0.41096571E-06
  0.16070616E-05  0.11896764E-05 -0.90115583E-06  0.12407376E-05 -0.10057567E-05
 -0.18803955E-05 -0.27999199E-05 -0.98412640E-07 -0.37034596E-06 -0.21793333E-05
 -0.28800564E-06  0.32284695E-06  0.12607870E-05  0.65510342E-06  0.31863054E-05
 -0.11625509E-04 -0.31588714E-04  0.13218645E-04  0.62302221E-05 -0.54647413E-04
  0.29178750E-05 -0.87955207E-05 -0.66776283E-06  0.19238954E-04 -0.11767936E-05
 -0.32125431E-05 -0.41688519E-05  0.23974320E-05 -0.13743692E-05 -0.56355347E-05
 -0.62518419E-06  0.26022344E-05  0.40932923E-05  0.32689156E-04  0.91430832E-06
 -0.36741658E-04  0.18395164E-04 -0.23557961E-04 -0.16956887E-04  0.36023328E-04
 -0.31095178E-04 -0.32131914E-04  0.49607206E-04  0.37043647E-05  0.52297803E-05
 -0.53027592E-05  0.12235748E-05  0.10762274E-04 -0.11113689E-04  0.23991542E-05
 -0.35143008E-05 -0.86876706E-04  0.30377090E-03 -0.36552854E-04 -0.21638370E-03
  0.38138704E-03 -0.79838110E-04 -0.16233509E-03  0.24203346E-04 -0.87479388E-04
 -0.94322913E-06 -0.12450801E-05  0.17282756E-05 -0.11436876E-05 -0.25270376E-05
  0.11771790E-05  0.23002745E-05 -0.20112889E-05 -0.24231679E-05 -0.10630546E-04
 -0.36631099E-05  0.25825034E-04  0.15478247E-04  0.20279009E-05 -0.13943101E-04
 -0.10980463E-05  0.50312163E-06 -0.21520437E-05 -0.31230630E-05 -0.19492468E-05
 -0.65939259E-06 -0.21133271E-05 -0.19112461E-05  0.52637870E-06 -0.20523255E-05
 -0.47103047E-06 -0.28046182E-06  0.17774726E-05  0.42621331E-05  0.95038905E-06
  0.31984368E-05 -0.11922263E-05 -0.10613996E-05  0.19243895E-06 -0.20682915E-06
 -0.20405331E-07 -0.13551767E-05  0.28490112E-06 -0.72407498E-06 -0.23756218E-05
  0.17570372E-05 -0.59497891E-06  0.70211696E-06 -0.80440871E-06  0.13143738E-05
  0.96762335E-06  0.58201759E-06 -0.77873352E-07 -0.65212020E-06 -0.92588083E-07
  0.20462883E-06 -0.20615798E-06  0.62381014E-06 -0.14073068E-06 -0.12038438E-05
  0.14497317E-05  0.10137586E-05 -0.86558548E-06  0.36407809E-05 -0.47596284E-06
  0.17433178E-05 -0.58756209E-06  0.52342464E-06  0.20792807E-05 -0.11525829E-04
  0.23516214E-04  0.17574494E-04 -0.22873805E-05  0.19459669E-04 -0.16805117E-04
 -0.13548742E-04  0.11796478E-04  0.14045290E-05 -0.60317396E-06  0.38745328E-06
 -0.79370753E-06  0.41206639E-06 -0.60607305E-06  0.14059359E-05  0.46701679E-06
  0.11973085E-06 -0.73499013E-06  0.36992129E-04 -0.91101015E-05  0.36321884E-04
 -0.23312784E-04 -0.20306762E-04  0.92555130E-05 -0.51362340E-05  0.15584522E-04

 -0.71809982E-06 -0.17151068E-05  0.11171455E-05 -0.37770648E-06  0.24987141E-06
 -0.12113594E-05 -0.12166842E-05  0.25646189E-05  0.25599506E-05  0.69913922E-06
  0.27785813E-05  0.38929062E-05 -0.15585289E-05  0.49691047E-05 -0.16018272E-05
  0.41603008E-05  0.95125057E-06  0.35326075E-06 -0.41365254E-04 -0.15287853E-04
  0.33833992E-06 -0.24677260E-04  0.24601958E-04  0.18043278E-06 -0.21256109E-04
 -0.33212431E-04  0.39013155E-05  0.79421027E-06 -0.76596529E-08  0.15084801E-05
 -0.39552315E-06 -0.70646557E-05 -0.17821920E-05  0.24336118E-06 -0.11414549E-05
 -0.43365103E-06  0.65731661E-05  0.16554229E-04  0.14732326E-07  0.80791286E-05
 -0.54118666E-04  0.41759179E-05 -0.28343558E-05  0.60327731E-05 -0.37375080E-04
 -0.26536634E-05  0.18086936E-05 -0.46970493E-06 -0.10788268E-05 -0.79724041E-07
 -0.21130323E-05  0.19933407E-05 -0.54117132E-06  0.23624058E-06  0.20673582E-05
 -0.22466115E-05 -0.17580911E-05 -0.22863486E-05 -0.14921419E-05  0.35269077E-06
 -0.21262854E-05  0.63080388E-06  0.35469502E-05  0.34558674E-07 -0.83043692E-06
  0.14974910E-06 -0.15547503E-05 -0.15552051E-05 -0.10358489E-05 -0.91464681E-06
 -0.81611220E-06 -0.17419225E-05  0.33600740E-06  0.84776207E-05 -0.12155697E-05
 -0.32382461E-05  0.79183184E-05 -0.54626964E-06 -0.48397954E-06 -0.43925656E-06
  0.17321216E-05 -0.22976126E-05 -0.22358574E-05  0.31728025E-06 -0.39265857E-06
 -0.98811790E-06 -0.17293622E-05 -0.15516650E-06 -0.43536281E-06  0.55617252E-06
  0.49324379E-05 -0.44947085E-04  0.45213300E-04 -0.24564824E-05  0.51538500E-05
  0.10770506E-04  0.86397521E-05 -0.66349185E-05  0.49131884E-04 -0.24987700E-05
 -0.32225490E-05 -0.33529199E-05  0.59385548E-06 -0.22541365E-05 -0.21025268E-05
 -0.43113005E-06  0.35385078E-05  0.82210435E-06  0.41699028E-04  0.37839707E-04
 -0.11785576E-04 -0.17970480E-04  0.86892878E-04 -0.17673036E-04  0.29030828E-04
  0.12961551E-04 -0.10654346E-04  0.37043647E-05  0.72805370E-04 -0.21975220E-05
  0.15117331E-04 -0.13922777E-04  0.11312603E-04 -0.13351296E-05 -0.18815783E-05
 -0.17063976E-05  0.18393271E-03  0.15356156E-03 -0.11049273E-03 -0.22508757E-03
 -0.85990349E-04 -0.95453501E-04  0.29693582E-03  0.94480434E-05 -0.12866902E-03
  0.15641973E-05  0.89007296E-06  0.79200581E-05  0.18925987E-05 -0.39602421E-06
 -0.43083589E-05 -0.36486988E-06 -0.41136477E-06 -0.51483553E-05 -0.16322135E-04
  0.31187906E-07  0.37140307E-04  0.59868731E-05 -0.55626779E-04 -0.12780313E-04
 -0.12983390E-04  0.86699212E-05 -0.78761988E-05  0.98907857E-06 -0.62879550E-05
 -0.30424806E-05 -0.39337570E-06  0.58525500E-05 -0.24082331E-05 -0.18555301E-05
 -0.19425223E-05 -0.17529482E-06  0.25085202E-05  0.19361252E-05 -0.19546492E-05
 -0.82658821E-07 -0.91310396E-05  0.23571834E-05 -0.10233100E-05 -0.21419752E-05
 -0.76398120E-06  0.12226504E-05  0.33667820E-05 -0.21564926E-06 -0.26691175E-05
  0.49129733E-05 -0.79911614E-06  0.13437546E-05  0.16414167E-06  0.27421844E-05
  0.28416525E-06 -0.46352364E-05  0.57995025E-06 -0.74589132E-06 -0.55534520E-05
 -0.65341759E-06  0.57396908E-06  0.97279181E-07 -0.31413503E-06 -0.23901103E-05
 -0.24944773E-06  0.19748705E-05  0.27285991E-05  0.39522826E-05 -0.18407146E-05
  0.27079079E-05 -0.29778697E-06 -0.47564878E-05 -0.10901337E-04 -0.59468321E-04
  0.22876702E-04 -0.32953037E-04  0.10715333E-03 -0.12727108E-03  0.96282775E-05
  0.45395802E-04 -0.98817682E-05 -0.13289104E-05 -0.11147222E-05  0.17740568E-06
  0.57813652E-06 -0.56323140E-05 -0.22644193E-06 -0.10499824E-05  0.16127902E-05
 -0.16720601E-06  0.12370173E-04  0.53235433E-05  0.45993879E-04 -0.12965859E-04
  0.17896188E-04 -0.20263486E-04  0.83179851E-05  0.40844997E-05 -0.66862247E-05

  0.58233445E-07  0.48892462E-06  0.37985507E-05 -0.74141278E-06  0.64267067E-06
  0.52148760E-06  0.36013576E-07  0.63484558E-06  0.41038548E-07  0.13397327E-05
 -0.97913872E-06 -0.43826641E-07 -0.57004261E-06  0.20077948E-05 -0.11411440E-05
  0.17196712E-05  0.29160292E-05  0.83186616E-06  0.11258186E-04 -0.19904600E-04
 -0.20123688E-04 -0.11655396E-04 -0.47045657E-04  0.79430672E-04 -0.14992109E-04
  0.14583624E-04  0.12920553E-05  0.20026258E-05 -0.70007374E-06  0.44756250E-05
 -0.78385668E-06  0.17286060E-05  0.66057865E-07  0.62013293E-06 -0.35777796E-06
  0.23936736E-05 -0.17982617E-04 -0.35105911E-04 -0.41828958E-04  0.11210539E-04
 -0.12333546E-04  0.40959997E-04  0.17922611E-04  0.18432463E-04  0.38119281E-04
  0.33301124E-06 -0.10821751E-05 -0.17180001E-05 -0.99513725E-06  0.15600168E-05
  0.27964975E-06 -0.13360641E-05  0.20612631E-05 -0.27321153E-06 -0.15612365E-05
 -0.11591156E-05  0.10537552E-05 -0.47151671E-06 -0.71679493E-06  0.42872774E-05
  0.27541367E-06 -0.53475552E-06 -0.26387264E-05  0.70799123E-06 -0.16315738E-05
  0.13585947E-07  0.17695845E-05 -0.24732375E-05 -0.26120289E-05 -0.42209449E-06
 -0.43614669E-06  0.11224638E-05  0.55895616E-06 -0.23437580E-05 -0.90284166E-06
 -0.20278605E-06  0.75285759E-06 -0.17400744E-05 -0.69125189E-06  0.18998059E-05
 -0.79570656E-06 -0.14480138E-06  0.43951905E-05 -0.46092519E-05 -0.24259947E-05
  0.30510825E-05  0.17687753E-05  0.98133976E-06 -0.61184465E-06  0.10042411E-05
  0.19575505E-04 -0.15394764E-04 -0.22916691E-04 -0.11365336E-05  0.11133224E-05
  0.27090817E-04  0.15884960E-04  0.13260557E-04 -0.50007483E-04 -0.21774245E-05
  0.19113547E-05  0.50591950E-05  0.29837376E-05 -0.32859608E-05  0.16421616E-05
  0.15273705E-05 -0.23456422E-05 -0.67181753E-06 -0.43006716E-05  0.26977228E-04
  0.61112286E-04 -0.65146460E-04 -0.24401492E-04  0.52292481E-04 -0.18989342E-04
 -0.96214827E-05  0.30536185E-04  0.52297803E-05 -0.21975220E-05  0.60745246E-04
 -0.37627977E-05 -0.11873367E-05  0.29208820E-05 -0.34235961E-05 -0.64568939E-05
 -0.82391679E-05 -0.24693162E-04 -0.30321954E-04 -0.64009730E-04 -0.10576927E-04
  0.11816816E-04  0.84521070E-04 -0.80121827E-04 -0.80049365E-04 -0.17698895E-03
  0.46341763E-07  0.41468583E-05  0.16429756E-05  0.14239132E-05 -0.36188867E-05
 -0.25998651E-05  0.49265458E-06  0.30943699E-07 -0.39830190E-05 -0.92972947E-05
 -0.76225723E-05  0.87402890E-05  0.55168093E-05  0.14968046E-04 -0.65312560E-04
 -0.33301857E-05  0.13207380E-04 -0.32973862E-04 -0.10466455E-05  0.17599356E-05
 -0.14545140E-05 -0.39801882E-06 -0.34916698E-05  0.32657070E-05 -0.15740311E-06
 -0.15762479E-05 -0.16352620E-05 -0.93972755E-06  0.14450645E-05 -0.14215145E-06
 -0.52748914E-06  0.11433192E-05  0.37060120E-05 -0.82583505E-06  0.47648726E-06
  0.98945570E-06  0.24032302E-07 -0.12713873E-05 -0.10859939E-07 -0.45204926E-06
  0.58279903E-06  0.39728086E-06  0.30406764E-06 -0.89474163E-06  0.17439234E-05
 -0.82460388E-06 -0.11879863E-06  0.22169296E-05  0.94044746E-07 -0.63568101E-06
  0.14926723E-05  0.16408127E-06 -0.70640066E-06 -0.27531575E-05  0.74456813E-09
 -0.88876021E-06 -0.20507244E-06 -0.19749201E-05 -0.78270723E-06  0.26960726E-05
  0.59315097E-06  0.14476190E-05  0.44622980E-05  0.46181241E-05  0.96336290E-05
 -0.13546630E-04  0.45379513E-05 -0.33484222E-05  0.78034538E-04 -0.67858882E-05
  0.43147322E-05  0.29442365E-04 -0.10836454E-05  0.72751889E-06  0.10616516E-05
 -0.66189251E-06  0.74719018E-06  0.43375688E-07  0.37506176E-07 -0.10312737E-05
  0.45075328E-06 -0.23781675E-04 -0.11372686E-04  0.18427708E-05  0.37944535E-05
  0.43041813E-05 -0.36439221E-04 -0.25343644E-05 -0.14378409E-04 -0.68775875E-05

 -0.20032665E-06  0.22216812E-07  0.74609298E-06 -0.31732083E-05  0.10202538E-05
  0.18983366E-06  0.12879104E-05  0.12646444E-05  0.11511440E-05 -0.93426659E-07
  0.10418327E-05 -0.95944987E-06 -0.35402565E-05  0.43830993E-05 -0.16600065E-05
  0.15629085E-05  0.36552478E-06  0.20984668E-06  0.20744671E-05 -0.84740508E-07
  0.14575025E-05  0.24244615E-05  0.20187983E-04  0.13862264E-04  0.66658848E-05
  0.11992126E-04 -0.88609983E-05  0.14457552E-05 -0.18287951E-06  0.74248822E-06
 -0.16168256E-05  0.59075635E-06 -0.85678022E-06  0.32129116E-06 -0.32806030E-06
 -0.11004974E-05 -0.25206325E-05 -0.14737092E-04 -0.11388055E-04  0.44533555E-05
  0.60084497E-05 -0.26151757E-05  0.18965719E-04  0.97742546E-05 -0.49310058E-05
 -0.10858272E-05  0.68137914E-06  0.44941551E-06 -0.37952253E-05 -0.18269660E-05
  0.20396082E-05 -0.16113206E-05 -0.33042813E-06  0.35677851E-06 -0.77765696E-07
 -0.13127328E-05 -0.21306919E-05 -0.13402535E-05  0.42004427E-07 -0.11825152E-06
 -0.24216263E-06 -0.18323401E-06 -0.42538927E-06 -0.15201229E-05 -0.10630546E-05
 -0.47419276E-06  0.59941719E-06  0.18560103E-05 -0.73005699E-06  0.66330108E-06
 -0.89588247E-06  0.75977916E-06 -0.21215526E-05 -0.29666992E-06 -0.17638530E-05
 -0.24945432E-05  0.39409131E-05  0.22256234E-05 -0.35625773E-06 -0.11817187E-05
  0.72825566E-06  0.16817473E-05  0.17270251E-06 -0.24172699E-06 -0.25176869E-05
  0.15712142E-05 -0.74374653E-07  0.11881196E-06  0.13135628E-05 -0.20858670E-05
 -0.48860166E-05 -0.13702829E-04 -0.71666721E-05  0.46151378E-04 -0.18246758E-04
 -0.36895112E-04 -0.64811855E-07  0.17376410E-04  0.16378095E-04 -0.26588547E-05
 -0.42480533E-05  0.21179938E-05 -0.28192878E-05  0.58489840E-06  0.40543293E-06
 -0.13714409E-05 -0.56669024E-05 -0.78208338E-06  0.32526491E-04  0.56298465E-06
 -0.73088908E-05 -0.43619772E-04  0.19304980E-04  0.16888166E-05 -0.15187216E-04
 -0.46390054E-04 -0.96102984E-05 -0.53027592E-05  0.15117331E-04 -0.37627977E-05
  0.68677946E-04 -0.32130706E-04 -0.16737236E-04  0.47176182E-05  0.25685230E-05
  0.14757752E-05  0.17234927E-03 -0.13772785E-05 -0.40678322E-05 -0.37479284E-04
 -0.20766712E-03 -0.27483367E-04  0.27806072E-03  0.50475039E-06 -0.58900483E-05
  0.18621703E-05 -0.92107355E-06 -0.35653724E-05 -0.59128920E-05  0.11855437E-05
  0.53767155E-05 -0.19067532E-06 -0.28687790E-05  0.36130807E-05  0.86812366E-05
 -0.39872522E-04  0.10420403E-04  0.11054697E-04 -0.33769369E-05  0.14020036E-05
 -0.28843156E-04  0.22139133E-04  0.18736085E-04  0.41479887E-06 -0.28101726E-05
 -0.71143539E-06 -0.55267738E-06  0.27243783E-06  0.17777657E-05  0.15470690E-05
  0.11109276E-05 -0.84387355E-06  0.28721280E-05  0.30516781E-06  0.96064401E-07
  0.24888098E-05 -0.67822410E-06  0.26046513E-06  0.51922175E-06 -0.35475603E-06
 -0.16839814E-05 -0.24728649E-05  0.13073748E-05 -0.47631372E-06 -0.67899512E-05
  0.68034516E-05  0.51087851E-06 -0.37969849E-06 -0.94263773E-06  0.82927451E-06
  0.31442407E-06 -0.10396829E-05 -0.13813297E-05 -0.14674521E-05 -0.99806009E-06
  0.42955911E-06 -0.29361243E-06  0.14929755E-05  0.67312113E-06  0.10485435E-05
  0.34799227E-06  0.19208947E-05  0.57819215E-05  0.56412260E-06  0.54616578E-06
  0.27273683E-05  0.19695668E-05  0.21336139E-06  0.35540981E-05 -0.14787987E-04
  0.83061509E-05 -0.37557296E-04  0.28984928E-04  0.63434166E-04  0.16543413E-04
  0.13363275E-04  0.82315940E-05 -0.47439783E-06 -0.55155971E-06  0.10236791E-06
  0.29131934E-05 -0.14568947E-05 -0.61595407E-06  0.91445622E-06 -0.73167072E-07
 -0.90314235E-06  0.23028506E-05  0.16249373E-04 -0.26154257E-05  0.34084618E-04
  0.19836877E-04 -0.17258404E-04 -0.60855032E-05  0.12884789E-04 -0.32267414E-04

 -0.37849794E-07 -0.53664507E-06  0.76917455E-06  0.25418318E-05 -0.75602576E-05
  0.62611790E-06 -0.13534857E-05 -0.60314107E-06 -0.80969735E-06 -0.13419013E-05
  0.71896589E-05  0.17727714E-05  0.19419284E-05 -0.81351022E-05  0.30232214E-05
 -0.94328944E-06 -0.82940176E-06 -0.35396702E-05  0.40805242E-04  0.42155507E-04
  0.22496517E-04  0.16309167E-04 -0.11059569E-03  0.21102082E-05 -0.10184978E-03
 -0.83144543E-05  0.57611662E-05 -0.24419946E-05 -0.10621112E-05 -0.55094959E-06
  0.89183858E-06 -0.22846175E-05  0.20986973E-05 -0.18239908E-05  0.62422756E-06
  0.12432695E-05  0.17198528E-04  0.28509638E-04  0.33699211E-05  0.11814440E-06
  0.16523658E-04 -0.28015234E-06 -0.30579955E-06  0.28591032E-05  0.93667788E-05
  0.13486856E-05  0.10565846E-05 -0.28874959E-05  0.23811829E-05  0.33247702E-05
 -0.13666684E-05  0.53266730E-06  0.29751051E-07 -0.40414378E-06  0.31489667E-06
  0.29763132E-05  0.16752325E-06  0.27879213E-06  0.97809679E-06  0.53930239E-06
 -0.16870119E-05  0.10519595E-05  0.11858427E-05  0.11892574E-05 -0.94431344E-06
  0.24476533E-07  0.74806000E-06 -0.15051281E-05  0.21885960E-05 -0.62414505E-07
 -0.78298864E-06 -0.25793350E-06  0.63966694E-06  0.50675412E-05  0.30351806E-06
  0.26786547E-05 -0.69498325E-05  0.85138960E-06 -0.87841886E-06  0.31622071E-06
 -0.26811682E-05 -0.14088297E-06  0.10503272E-05 -0.62443003E-06  0.22222247E-05
 -0.72100315E-05  0.23413612E-05  0.79248297E-06 -0.10381899E-05 -0.76944924E-06
  0.22788911E-04  0.19806231E-04 -0.51093826E-05 -0.41362145E-04  0.95805728E-04
  0.31376693E-04  0.20739964E-05  0.43081389E-05 -0.19236630E-04  0.14220402E-05
  0.58601100E-05  0.41682139E-06  0.74723488E-06 -0.37165400E-05  0.10268445E-04
  0.20925797E-05 -0.90558452E-06 -0.79314357E-05 -0.43645231E-04 -0.32485869E-04
  0.64260718E-04 -0.41853787E-04  0.37346636E-04  0.54307595E-04 -0.13916905E-04
  0.30650133E-04  0.25536457E-04  0.12235748E-05 -0.13922777E-04 -0.11873367E-05
 -0.32130706E-04  0.88476929E-04 -0.19867373E-04 -0.60339159E-07  0.23837759E-05
  0.36139701E-05 -0.17150414E-03 -0.37446360E-04  0.83607446E-04  0.23473918E-04
  0.32547084E-03  0.50571174E-04 -0.15782174E-03  0.20090055E-04  0.63367025E-04
 -0.23840774E-05 -0.19533154E-05  0.27321875E-05  0.57299625E-05  0.86119801E-05
 -0.95676818E-05  0.17836132E-05  0.17824805E-05  0.20958104E-05  0.19673088E-04
  0.61913373E-04 -0.25145871E-04  0.70611278E-05 -0.72179564E-04 -0.10429914E-04
  0.96956900E-05 -0.21311798E-04  0.10929268E-04  0.16711815E-05  0.52754498E-05
 -0.21944859E-05 -0.10126881E-05  0.12813378E-05 -0.68591058E-06  0.18254398E-05
 -0.10518434E-05  0.27382408E-05 -0.87497707E-07 -0.11652961E-05 -0.62830661E-06
  0.15891306E-05 -0.48603010E-06 -0.61632456E-06 -0.19491644E-05  0.94266320E-06
  0.22908930E-05  0.19014859E-05 -0.33736171E-05  0.20999146E-05  0.46487360E-05
 -0.10434998E-04  0.32221920E-05  0.12105977E-05  0.14127668E-05 -0.29752704E-06
 -0.13554232E-05 -0.12624154E-05  0.62560488E-06  0.99562975E-06 -0.95699106E-07
 -0.10658686E-06 -0.11810709E-05 -0.52943423E-06  0.43144985E-06 -0.17485184E-05
 -0.43916334E-05 -0.19491956E-05 -0.15105052E-05 -0.48634970E-05  0.28590511E-05
 -0.53180501E-05 -0.15913506E-05  0.75270776E-06  0.22991313E-04 -0.44171477E-05
 -0.59139813E-04  0.50092331E-05 -0.38591615E-04 -0.35113312E-04 -0.25648750E-04
 -0.33159715E-04 -0.21179292E-04 -0.37655723E-06  0.22871832E-06 -0.67327298E-07
 -0.11608539E-05  0.57220376E-05  0.10606120E-05 -0.15968890E-05 -0.29022256E-06
  0.26760004E-05 -0.14928697E-04  0.75102825E-05 -0.12667827E-04 -0.21338174E-04
 -0.46572953E-04  0.27436709E-04 -0.11276591E-05 -0.53187112E-05  0.25428853E-04

 -0.19364689E-05 -0.11218101E-05 -0.69836562E-06 -0.11119962E-05  0.40950533E-05
  0.21475852E-05 -0.20399535E-06 -0.42126132E-05 -0.13034381E-05  0.29376403E-06
  0.12399749E-05  0.63006612E-06 -0.22524769E-05  0.37982754E-05  0.13382107E-05
 -0.11431562E-05 -0.27616175E-05  0.48192275E-06  0.36717851E-04  0.43505128E-04
 -0.60033636E-06  0.66746039E-04  0.21339549E-05 -0.52311366E-04 -0.10428855E-06
  0.67982132E-05 -0.14405069E-05  0.40299907E-06 -0.16754060E-05 -0.19056463E-05
  0.16434580E-05 -0.26719530E-05  0.33471285E-05 -0.87694291E-06  0.80334580E-06
  0.17014919E-05 -0.78916404E-05  0.36524385E-06  0.16720521E-04  0.30256568E-05
 -0.12353062E-04  0.60295469E-05 -0.83186511E-05 -0.24418137E-04  0.32982837E-04
  0.20549673E-05  0.77407065E-06 -0.15059188E-06 -0.42300082E-06  0.10206168E-05
 -0.10752616E-05  0.20508761E-06  0.74969797E-06 -0.20355095E-05 -0.19554565E-05
  0.13783725E-05  0.11504894E-05  0.18526987E-06  0.44823421E-06  0.19166877E-05
 -0.10349831E-05  0.18518952E-06 -0.39294729E-07 -0.47938620E-06  0.12724401E-05
  0.26337773E-06  0.78970603E-06  0.32631903E-06 -0.21271202E-07  0.41915201E-06
  0.19679328E-05  0.34144347E-06  0.19648378E-06 -0.80698759E-06  0.24298035E-05
  0.33161116E-05  0.75728996E-06 -0.82712334E-05  0.94464692E-06 -0.10928681E-06
  0.23129098E-06 -0.22552014E-06  0.12614953E-05  0.71931320E-06 -0.38224951E-06
  0.45135894E-06  0.11814383E-05 -0.53390684E-06  0.27359257E-07  0.80267625E-05
 -0.13717188E-04  0.25251277E-04  0.12577069E-04 -0.79261878E-05 -0.11773676E-04
 -0.12699226E-04 -0.93500630E-05 -0.30008241E-06  0.45963637E-05  0.23604734E-05
 -0.51908271E-05 -0.94232723E-05  0.15225135E-05  0.69997089E-05 -0.16985206E-04
 -0.20662970E-05  0.81004960E-05  0.15677899E-04  0.35396459E-04 -0.31001694E-04
 -0.13084327E-03  0.14279349E-03 -0.34532334E-04 -0.11492515E-05  0.22900223E-04
  0.25578707E-04 -0.50214761E-04  0.10762274E-04  0.11312603E-04  0.29208820E-05
 -0.16737236E-04 -0.19867373E-04  0.82393563E-04 -0.37619501E-05 -0.40174400E-05
  0.13502263E-06  0.18969777E-04  0.19156354E-03 -0.72210903E-04 -0.11377800E-03
  0.10369447E-03 -0.11477293E-03  0.70577357E-04 -0.21601186E-04 -0.11308615E-03
 -0.42149188E-06  0.47185088E-05  0.82311441E-05  0.11581021E-05 -0.86666714E-05
  0.32448396E-05 -0.21723743E-05  0.10258751E-05 -0.14371033E-04 -0.31990950E-04
  0.57948557E-05  0.48955374E-04 -0.10013333E-04  0.84031929E-04 -0.18891890E-04
 -0.37221046E-05  0.38007304E-04 -0.38261567E-05 -0.68340470E-06 -0.18829042E-05
  0.58233036E-05  0.21975686E-05 -0.21522481E-05 -0.24571328E-05 -0.12486076E-05
 -0.40927781E-06 -0.21579617E-05 -0.99348908E-06 -0.41898982E-06 -0.29025748E-05
 -0.13164874E-05  0.43425932E-05  0.12835323E-05  0.16388250E-05 -0.14172765E-05
  0.54612369E-05  0.73804136E-06 -0.49258271E-06  0.17862037E-05  0.21494174E-05
  0.14618171E-05 -0.21934443E-05  0.75241068E-06 -0.30317159E-06  0.17215188E-05
 -0.64935224E-06  0.12454548E-05 -0.18983814E-06  0.90431901E-06 -0.73232053E-06
 -0.62407403E-06  0.37001122E-06  0.46526585E-06 -0.19580206E-05  0.73193036E-06
  0.25305121E-05 -0.17646035E-05  0.13098698E-05  0.26713238E-05 -0.61287647E-05
  0.17441634E-05 -0.93628159E-06  0.19751795E-05 -0.14323933E-05  0.14205131E-05
  0.34351119E-04  0.15434108E-04  0.23071315E-05  0.13330562E-03 -0.81035329E-05
 -0.26737446E-04  0.28070653E-04  0.50201240E-06 -0.43684227E-06  0.23732272E-05
  0.21928289E-06 -0.66133845E-06  0.26449155E-06  0.92480100E-06  0.11586278E-05
  0.18462875E-05  0.26529484E-04  0.21713752E-04 -0.41664620E-05 -0.90309126E-06
  0.24982134E-05  0.15736137E-04  0.41675214E-05  0.16383348E-05  0.10405630E-05

  0.43502836E-06 -0.67546575E-06  0.16835633E-05  0.72787468E-06 -0.19778953E-05
 -0.33590720E-06 -0.30544587E-06  0.13843217E-05  0.28456133E-07  0.80814277E-06
  0.16554156E-05  0.24391128E-05 -0.19315926E-06 -0.30346163E-05  0.18601667E-05
  0.22477658E-06 -0.90388911E-06 -0.23854640E-05  0.85005946E-05  0.18432718E-04
  0.27164944E-05  0.46656720E-05 -0.40506173E-04  0.63545895E-05 -0.10183671E-04
  0.48427160E-06  0.13211160E-04 -0.21543188E-05 -0.11005320E-05  0.15942663E-05
 -0.83160395E-06  0.29164633E-05 -0.64530557E-06 -0.39514538E-06  0.38566243E-06
  0.17401745E-05 -0.24884551E-05  0.30984550E-05 -0.47969952E-05 -0.12585114E-04
  0.20866785E-04  0.22273737E-04  0.20700890E-04  0.82439024E-05 -0.49783776E-05
 -0.51939195E-06 -0.15695979E-05 -0.10167182E-05  0.15536399E-06 -0.20265854E-05
  0.12066724E-05 -0.10170892E-05  0.26717660E-06 -0.45940364E-06 -0.55814584E-06
 -0.20900596E-06 -0.95408854E-07  0.11729145E-05  0.77730727E-06 -0.14729408E-05
 -0.17709455E-05  0.32448292E-06  0.21700808E-06  0.74223295E-06 -0.11581721E-06
  0.16183481E-06  0.43037679E-06  0.76821661E-06  0.28118269E-06 -0.54118369E-06
 -0.61084355E-06 -0.29636190E-06  0.10121308E-05 -0.53185949E-06  0.17097510E-05
  0.12282924E-06 -0.92633114E-06  0.15355482E-07 -0.10535733E-05 -0.57158522E-06
  0.88660690E-06  0.13496453E-05  0.14273376E-05  0.41431152E-06 -0.66085745E-06
  0.84125243E-06  0.50778255E-06 -0.28059351E-05  0.51466111E-06 -0.15605264E-05
 -0.23174405E-05  0.11800989E-04  0.15033842E-05  0.62328901E-05 -0.11572956E-04
  0.19949142E-04  0.81193579E-05 -0.62602495E-05 -0.18005615E-04 -0.24888416E-05
  0.14042486E-06 -0.12717697E-05 -0.37207814E-06  0.40643734E-05 -0.22685656E-05
  0.78465586E-06 -0.11461695E-05 -0.28910776E-05 -0.10190208E-04 -0.65591492E-06
 -0.70919839E-05 -0.53716361E-05  0.11847697E-04 -0.38459451E-04  0.83411075E-05
  0.41700940E-04 -0.23206267E-04 -0.11113689E-04 -0.13351296E-05 -0.34235961E-05
  0.47176182E-05 -0.60339159E-07 -0.37619501E-05  0.36411069E-04  0.27784954E-06
  0.19908239E-05  0.92835693E-04 -0.14787552E-03  0.51460161E-04  0.19995684E-03
 -0.99480603E-04  0.25726846E-04  0.75171323E-04 -0.44003576E-04  0.64098406E-04
 -0.17170988E-05  0.33522072E-05 -0.25407521E-05  0.11519767E-05 -0.43760150E-07
  0.99110456E-06 -0.17029078E-06  0.41167722E-05 -0.64232455E-06  0.97708048E-05
  0.47153244E-05 -0.18555335E-04 -0.12814246E-05 -0.25735576E-04  0.56400863E-05
 -0.16797113E-04  0.86461488E-05  0.77406432E-05  0.10190110E-05 -0.78092572E-06
 -0.21393965E-05 -0.81588150E-06  0.33962137E-05 -0.61345112E-06 -0.38609359E-06
 -0.73750999E-06 -0.22508356E-06  0.15452776E-05 -0.11976319E-05 -0.51546627E-06
 -0.30609056E-06 -0.22462214E-05  0.20755224E-05  0.15107475E-05 -0.42881184E-08
 -0.74186451E-06  0.72951321E-06 -0.50816541E-06  0.57563170E-06  0.46580547E-07
  0.25743770E-07  0.21939730E-06 -0.45563134E-06 -0.20024662E-06  0.87787904E-06
 -0.71730546E-07 -0.15976105E-06  0.63711707E-06  0.12568601E-05 -0.16757867E-06
  0.46483157E-06 -0.13751219E-05 -0.52276125E-06  0.86260044E-06  0.40253094E-06
 -0.29610206E-06  0.10945052E-05 -0.10274765E-05 -0.95757885E-06  0.18597000E-06
  0.19615225E-06 -0.69185974E-06  0.80866805E-06  0.24058115E-05  0.39937552E-04
 -0.16903617E-04 -0.29619172E-05 -0.23824011E-04  0.65599781E-04  0.66973187E-05
  0.56667326E-05  0.16086087E-04 -0.43789042E-07  0.11990435E-07  0.64848131E-07
  0.43941763E-06  0.12427631E-05  0.23949841E-06  0.12657228E-05  0.39325254E-06
  0.19641117E-07  0.73569791E-06 -0.13498016E-04 -0.13189593E-05 -0.12692772E-04
  0.92617690E-06  0.59517007E-05  0.11154725E-05 -0.13389474E-05 -0.11549765E-04

  0.51958802E-06 -0.80461918E-06 -0.19827235E-05  0.50023343E-07  0.16904378E-06
 -0.22507335E-05 -0.17726143E-06 -0.25071566E-05 -0.17587097E-06 -0.97225092E-06
  0.10133848E-06 -0.20747764E-05  0.28084258E-06 -0.86312962E-06 -0.23101311E-05
 -0.24976404E-05 -0.90496430E-06 -0.58712307E-06  0.66022774E-05 -0.51432863E-06
  0.13607934E-04  0.46195676E-05  0.13365850E-04  0.89941106E-06  0.77144243E-05
 -0.16689412E-04 -0.10486836E-04  0.76114947E-06  0.33015862E-06 -0.32391935E-06
 -0.32051174E-07  0.20032008E-05  0.13272277E-05  0.20553813E-05 -0.87907519E-06
 -0.12527120E-05 -0.20196927E-05 -0.10036313E-05 -0.26956816E-04  0.87367553E-05
  0.33383515E-04 -0.44371149E-04  0.50918019E-05 -0.82896888E-05  0.16047326E-04
 -0.92190913E-06 -0.76166018E-06  0.37912258E-05 -0.53654570E-06  0.24076525E-06
  0.13790251E-05 -0.29367507E-06 -0.19703587E-05 -0.73939429E-06 -0.62293551E-06
  0.56643135E-06 -0.73383505E-06 -0.21874959E-06 -0.19205125E-05  0.14094315E-05
 -0.13526284E-06 -0.74774558E-06 -0.16503806E-05 -0.33279120E-06 -0.72993911E-06
 -0.81262861E-06 -0.16629798E-05  0.88751309E-06  0.68728444E-06  0.76156453E-06
  0.10359547E-05  0.19171498E-05 -0.11913115E-05 -0.93320816E-06 -0.13519459E-05
 -0.57469967E-06  0.41804573E-06 -0.29218571E-06  0.22348244E-06 -0.14687659E-05
 -0.53311628E-06  0.15219995E-05  0.93957803E-06  0.28850292E-05  0.25284105E-05
  0.47141778E-06 -0.72580579E-06  0.15833218E-05 -0.11621525E-05 -0.21047841E-05
 -0.87613172E-05 -0.14541052E-04  0.43012275E-05  0.24291053E-04 -0.19585277E-04
 -0.10580716E-05 -0.25106175E-06 -0.49568478E-05 -0.13190815E-04  0.21615305E-06
 -0.16008618E-05  0.33050822E-05 -0.49696409E-05 -0.31418194E-05  0.82221998E-05
 -0.72569964E-06 -0.18545246E-05 -0.50196967E-05 -0.42562072E-05 -0.61828385E-06
  0.25428923E-04 -0.39291978E-04 -0.27771105E-04  0.86250016E-04  0.72674113E-05
 -0.22366207E-05  0.53236856E-05  0.23991542E-05 -0.18815783E-05 -0.64568939E-05
  0.25685230E-05  0.23837759E-05 -0.40174400E-05  0.27784954E-06  0.35618511E-04
  0.73510211E-05 -0.24923326E-04  0.74742391E-04  0.93933374E-04 -0.78466535E-05
  0.12263696E-03 -0.77062166E-04 -0.40342710E-04 -0.15584624E-04  0.19275833E-03
 -0.21743833E-05 -0.11498432E-05  0.16057689E-05 -0.26541763E-05  0.20897388E-05
  0.10181484E-05  0.22505556E-05 -0.13133577E-05 -0.55594382E-06 -0.12529105E-04
 -0.16697553E-04  0.20124800E-04  0.18361254E-04 -0.28211279E-05  0.27460541E-05
  0.10410156E-04 -0.72414600E-06 -0.17902385E-04  0.59845379E-06 -0.14135963E-05
 -0.91236763E-06  0.79620683E-06 -0.21025779E-05  0.19951186E-05 -0.82335899E-06
  0.62920272E-07  0.80732575E-06 -0.10634064E-05  0.11889701E-05  0.54830623E-07
 -0.66181296E-06  0.11682848E-05 -0.72572340E-06  0.13252205E-05  0.61099966E-07
  0.38331663E-06  0.60126444E-06  0.48486094E-06  0.11485357E-05 -0.89482798E-06
  0.15368691E-05  0.71152182E-07  0.25925433E-06 -0.15550457E-05  0.62666608E-06
  0.87702744E-06 -0.59775955E-06  0.43682263E-06  0.35238691E-06 -0.15053634E-06
 -0.54857157E-06 -0.57633251E-06 -0.14459536E-05  0.27148695E-06  0.35083390E-06
 -0.92586141E-06  0.20392481E-05  0.26571588E-05 -0.33172796E-05 -0.11714651E-05
  0.44590227E-06 -0.12985881E-07 -0.51036097E-06  0.19592418E-05  0.12197537E-04
 -0.17121147E-04 -0.24597566E-04 -0.23017403E-04  0.79019186E-04 -0.42025279E-06
  0.12618962E-04  0.26539043E-04  0.10084985E-05 -0.88281187E-06 -0.30169514E-06
  0.18521330E-06  0.38304235E-06  0.32080110E-06  0.12740380E-05  0.51748654E-06
 -0.29496360E-06  0.97194626E-05  0.10584581E-04  0.46119965E-05  0.58551992E-04
 -0.17244506E-04 -0.10273411E-04  0.17336263E-04  0.51443554E-05 -0.42723941E-05

 -0.25993592E-06 -0.34263137E-06  0.14366551E-05  0.15109824E-05 -0.31178962E-05
  0.88824942E-06  0.83730160E-06 -0.10188734E-06 -0.20118154E-05  0.79958622E-06
  0.15112341E-05 -0.27523486E-05 -0.45906733E-06 -0.44798851E-05 -0.88167762E-07
 -0.35501157E-05  0.41046928E-06 -0.13535260E-05  0.58030076E-05  0.43893713E-05
 -0.87230868E-05 -0.66759252E-04  0.44183397E-04 -0.12876302E-04  0.68895094E-05
 -0.24494505E-04  0.11301812E-04  0.85818364E-06  0.48329158E-06 -0.21947189E-05
 -0.10569391E-05  0.31996170E-05  0.44234646E-06  0.37803786E-05 -0.20874716E-05
 -0.68049579E-06  0.69755377E-05  0.69433618E-06 -0.25514277E-04  0.17178830E-04
  0.12827107E-04  0.96848816E-05  0.46036391E-05  0.27022881E-04  0.22255099E-04
 -0.28693701E-06  0.63495964E-06  0.17080018E-05  0.79605816E-06  0.21972423E-06
  0.18495623E-06 -0.56893759E-06  0.16373001E-05 -0.49542436E-06  0.19192293E-06
  0.50116566E-06  0.12478746E-05  0.39026332E-06 -0.11692302E-05  0.14040345E-06
  0.11329648E-05  0.89028237E-07 -0.22358473E-05 -0.51163639E-06 -0.19344103E-05
  0.48310876E-06 -0.84836318E-06  0.29438722E-05  0.42281283E-06  0.76283937E-06
  0.13088001E-05  0.45246296E-06  0.75560756E-06  0.79010141E-06  0.14580127E-05
 -0.62621859E-06  0.11621236E-05 -0.26661804E-05  0.26218806E-06 -0.10174674E-05
 -0.14690074E-05 -0.32233833E-05  0.44493997E-05  0.49953875E-05  0.19583146E-05
  0.80657731E-06 -0.69890742E-06  0.47033669E-06 -0.14640376E-07 -0.55006281E-05
 -0.22827788E-05  0.28150306E-05 -0.13996557E-06 -0.19960430E-05 -0.42179552E-04
  0.26076559E-04  0.63166852E-05 -0.64421128E-05 -0.14880816E-04  0.16758966E-05
 -0.46875978E-06  0.34116815E-05 -0.23828001E-05 -0.22472389E-05  0.79890613E-05
 -0.19507734E-05 -0.54111284E-05  0.24340372E-05 -0.32639469E-04  0.11493212E-04
  0.18603617E-04 -0.19809226E-04  0.27584101E-04  0.67756183E-04 -0.37049493E-04
 -0.22981174E-04  0.25074780E-04 -0.35143008E-05 -0.17063976E-05 -0.82391679E-05
  0.14757752E-05  0.36139701E-05  0.13502263E-06  0.19908239E-05  0.73510211E-05
  0.63151904E-04  0.25055810E-04  0.14086933E-04  0.18462423E-03 -0.26893410E-04
  0.93263277E-04 -0.12964257E-03  0.38536586E-04  0.13772505E-03  0.17451280E-03
 -0.15591804E-05  0.16098252E-05  0.66554705E-05  0.40779586E-05  0.10221361E-05
 -0.70849999E-05 -0.17677151E-05 -0.11277810E-05 -0.11754558E-04  0.31839171E-05
  0.11722114E-04  0.11218510E-04  0.12254449E-04  0.98555142E-04 -0.49138104E-04
  0.18505337E-04  0.89769204E-05 -0.20497716E-04 -0.11162273E-05  0.20601890E-05
  0.34260285E-05 -0.11168034E-05 -0.50517231E-05  0.52703740E-05 -0.57061063E-06
 -0.27791399E-06 -0.24060216E-05  0.22724789E-06  0.39060830E-06  0.21603995E-05
  0.45606035E-06 -0.10206202E-05 -0.27126823E-05 -0.89198201E-06  0.79430753E-06
  0.77479251E-07  0.21270114E-06  0.14202873E-05  0.14385715E-05 -0.47610879E-06
 -0.81607820E-07  0.22379320E-06  0.77457865E-06 -0.64048991E-06 -0.20489982E-05
  0.30652606E-06 -0.19507898E-05 -0.14660343E-05 -0.16029254E-05  0.10216383E-05
  0.30081906E-05  0.49864372E-06  0.20812412E-05 -0.14921680E-05  0.42073244E-06
 -0.36197231E-06  0.25985031E-05  0.12206753E-05 -0.61501696E-05  0.56355810E-06
 -0.17316987E-05  0.82672794E-07 -0.27842076E-06  0.67880067E-05  0.50629794E-05
 -0.34509462E-04 -0.51431544E-05 -0.84518353E-04  0.12447271E-03  0.29586196E-04
 -0.35491976E-05  0.97040580E-05 -0.48414796E-06 -0.22046680E-05 -0.17713386E-05
 -0.86546791E-06  0.37820243E-05 -0.35468496E-06  0.64124849E-06 -0.32603141E-06
 -0.15427744E-06  0.20432470E-05 -0.41687880E-05 -0.35517730E-04  0.45130736E-04
  0.13634669E-04 -0.66896305E-04 -0.21335721E-05 -0.70961775E-05 -0.36118850E-04

  0.70038442E-05  0.83961659E-06  0.40054129E-05 -0.10714483E-04 -0.28029731E-04
 -0.19445535E-05  0.12548225E-04  0.22353955E-04  0.56338069E-05 -0.18449595E-04
  0.14363450E-04  0.20145675E-04 -0.21210207E-04  0.16008823E-04  0.10125374E-05
  0.19915224E-04 -0.37498275E-05 -0.17128732E-04 -0.44149861E-04 -0.58798759E-04
  0.20657960E-03 -0.72227499E-03  0.52123652E-03  0.58326281E-04  0.52940873E-03
 -0.15743219E-03 -0.97444672E-04  0.38413953E-05  0.17248400E-05 -0.23082730E-05
 -0.59581329E-07 -0.13463373E-04 -0.87383425E-06  0.79365963E-05 -0.10041578E-04
 -0.63028463E-05 -0.90821761E-04 -0.21556093E-03 -0.11323639E-03  0.10371887E-03
 -0.30694093E-03  0.16855392E-03  0.14028775E-03  0.21605212E-03 -0.11531228E-04
 -0.26301951E-04  0.23255434E-04  0.19903616E-04  0.98829118E-06 -0.13293060E-04
  0.55660866E-05  0.13544649E-05  0.57287081E-05 -0.52500948E-05 -0.49133233E-06
 -0.23698132E-04 -0.44018051E-04  0.30371322E-05 -0.15475953E-05 -0.51307977E-05
  0.82156648E-08 -0.95504788E-05  0.15070227E-04 -0.33226403E-05 -0.10291657E-04
  0.11505520E-04  0.24211475E-04  0.49112683E-05 -0.29072780E-04  0.93797830E-06
  0.51555615E-05 -0.85229145E-05 -0.65619684E-05  0.26275000E-04  0.20802995E-04
 -0.36148059E-04  0.87653656E-05  0.13782263E-04 -0.33219061E-05 -0.19433545E-04
  0.94976246E-05 -0.66626724E-05 -0.33213027E-05  0.36178520E-05 -0.91363431E-05
  0.19039320E-04 -0.61348295E-05 -0.34709682E-05 -0.60967310E-05 -0.33619991E-05
 -0.16353404E-03  0.25931885E-03 -0.95307129E-04 -0.21742663E-04  0.35299562E-03
  0.41525868E-04 -0.18991729E-04 -0.27953629E-05  0.17649160E-04 -0.17165658E-04
  0.15363851E-04 -0.26446833E-05  0.93221812E-05  0.14485575E-04 -0.21143841E-04
 -0.16274880E-04  0.22239423E-05 -0.64253173E-05  0.60848745E-03  0.12401248E-03
 -0.13090688E-03 -0.90695465E-03  0.44353261E-03  0.52976844E-03 -0.30714734E-03
 -0.22606787E-04  0.28813202E-03 -0.86876706E-04  0.18393271E-03 -0.24693162E-04
  0.17234927E-03 -0.17150414E-03  0.18969777E-04  0.92835693E-04 -0.24923326E-04
  0.25055810E-04  0.42776320E-02 -0.15523695E-02 -0.68986072E-03  0.11782538E-03
 -0.16335711E-02 -0.37789257E-04  0.17028805E-02 -0.84991517E-04 -0.16635550E-03
  0.69310420E-05  0.14674099E-04 -0.21199595E-04 -0.95025862E-05 -0.61466261E-05
  0.11351646E-04 -0.17090619E-04  0.36754988E-05 -0.17318594E-04  0.12091063E-03
 -0.12560176E-03 -0.61347894E-04 -0.11330423E-03 -0.65509433E-04  0.89487217E-04
 -0.17181312E-03 -0.77103378E-05 -0.40201129E-04  0.15171435E-04 -0.65072853E-05
 -0.22449936E-04  0.22083019E-06  0.18188088E-04 -0.58171507E-05  0.11319568E-04
  0.14282540E-04 -0.89221987E-05  0.51936145E-05 -0.17479238E-04 -0.19591536E-04
 -0.20387096E-04 -0.19597014E-04  0.21695658E-04 -0.44421143E-05 -0.84958681E-05
 -0.48782086E-05  0.19748912E-04  0.81725743E-05  0.50709412E-05 -0.76371126E-05
  0.49730915E-05 -0.19783914E-04  0.55244598E-05 -0.64354598E-05 -0.38345285E-05
  0.33467870E-05  0.19754187E-05 -0.83890324E-05 -0.10425904E-04 -0.31099340E-05
  0.17772185E-05 -0.22926733E-05  0.29913351E-05  0.12040807E-04 -0.13538177E-04
  0.20624899E-04  0.17909348E-04  0.89050118E-05 -0.16368588E-05 -0.13965842E-04
  0.26237424E-04  0.50398168E-05 -0.53010584E-05 -0.48636064E-03  0.14887856E-03
  0.41743308E-03 -0.48757647E-03  0.32416086E-03  0.14616977E-04  0.21482886E-03
  0.31051549E-03 -0.78689646E-04 -0.17898971E-04  0.23101839E-04 -0.54637509E-05
  0.13979438E-04 -0.27801093E-04 -0.10267574E-05  0.56463366E-05 -0.54425547E-05
  0.57007998E-05  0.23689894E-03 -0.30646965E-04 -0.39154000E-03 -0.59411444E-03
  0.43213973E-03  0.19668918E-03  0.83505340E-05 -0.78000214E-04 -0.16121077E-03

 -0.35579649E-04 -0.64190284E-05 -0.39707406E-04 -0.27990966E-04  0.96934790E-04
  0.91576899E-05 -0.11678260E-04 -0.17861462E-04  0.24968338E-04  0.73627284E-05
 -0.26051000E-04  0.18026900E-04 -0.55945568E-05 -0.20483706E-04  0.35246298E-05
 -0.20390988E-05  0.33116107E-05  0.23508272E-04 -0.14609314E-03  0.24022845E-03
 -0.24445410E-03 -0.38808850E-03  0.51355830E-03 -0.41973301E-04  0.97205949E-04
 -0.88962353E-05 -0.65689466E-04  0.15485719E-04  0.93245401E-05  0.41912047E-05
 -0.22071317E-04  0.83951300E-06 -0.17580619E-04  0.94641929E-05 -0.11726221E-04
  0.57138776E-05  0.84398647E-05 -0.64499606E-05  0.15769306E-03  0.52342255E-04
 -0.10761845E-02  0.16536064E-03 -0.45763877E-03 -0.41094798E-04 -0.47873827E-03
  0.12339440E-05 -0.58719697E-04  0.23726981E-04 -0.32911777E-04  0.21600822E-04
  0.11962680E-04  0.25558703E-04 -0.38906657E-05  0.17118634E-04  0.20978553E-04
  0.38086166E-04  0.33636586E-04 -0.29231794E-04 -0.26946593E-04  0.27048356E-04
 -0.15067541E-04 -0.56487513E-05  0.44608573E-05 -0.40381672E-05  0.22183437E-04
 -0.73936515E-05 -0.24774738E-04 -0.96713459E-05  0.16786627E-04  0.90473440E-05
  0.27995321E-04  0.21056630E-04 -0.36905208E-05 -0.12923932E-06 -0.28188013E-04
  0.79902825E-05  0.26583349E-04 -0.30939404E-04  0.85477839E-05 -0.85478954E-05
 -0.26500850E-04 -0.34715965E-04 -0.78561000E-05 -0.23172103E-05  0.21462350E-06
 -0.18054820E-04  0.92061870E-06  0.82436241E-05  0.66675622E-05  0.15908860E-04
 -0.85042987E-04 -0.75905560E-03  0.16979592E-03  0.13690348E-03 -0.11391831E-02
 -0.31683960E-04  0.16724252E-03 -0.10483988E-03  0.13914189E-03  0.10755012E-04
 -0.41384977E-04 -0.14184654E-04 -0.55864474E-05 -0.32245201E-04 -0.47372021E-04
 -0.25306858E-04  0.25495862E-04  0.42476966E-04 -0.81985655E-04 -0.26362417E-04
 -0.35737130E-03  0.60027013E-04 -0.11400350E-03 -0.30677862E-03  0.28763696E-03
 -0.20096445E-03 -0.94397113E-04  0.30377090E-03  0.15356156E-03 -0.30321954E-04
 -0.13772785E-05 -0.37446360E-04  0.19156354E-03 -0.14787552E-03  0.74742391E-04
  0.14086933E-04 -0.15523695E-02  0.72700435E-02 -0.54312795E-04 -0.20965833E-02
  0.22744733E-02 -0.13328946E-02 -0.40690643E-03  0.41670074E-03 -0.42349879E-03
  0.49140268E-05 -0.53699460E-05  0.61094355E-04 -0.14301435E-04 -0.30561562E-04
 -0.79674082E-05 -0.17729584E-04 -0.33536853E-04 -0.38190688E-04 -0.29057363E-03
 -0.82713094E-04  0.49839212E-03  0.16394253E-03  0.13175654E-05 -0.11932492E-03
  0.83166467E-04  0.11007142E-03 -0.12057230E-03 -0.32767588E-04 -0.35251670E-04
  0.11893427E-04  0.62116142E-05 -0.24601858E-04  0.60658497E-06 -0.27725546E-04
 -0.61520637E-05 -0.86603740E-05  0.26020581E-04  0.40800123E-04  0.34591988E-04
  0.11915161E-04 -0.17692467E-04 -0.21003969E-04  0.11105001E-04 -0.20025808E-04
  0.62862661E-05 -0.31542776E-04  0.71342668E-05 -0.29124774E-04 -0.51011780E-05
 -0.15157711E-04 -0.51660754E-05  0.22423476E-05 -0.36762604E-05  0.62506365E-05
 -0.12967628E-05  0.19081096E-04 -0.11693873E-04  0.39548147E-05 -0.32582279E-04
  0.67157633E-05  0.84614600E-05  0.99474385E-05 -0.15599687E-04 -0.23671309E-04
  0.55358583E-05  0.19056948E-04  0.24794870E-04  0.35388708E-04 -0.34558876E-04
  0.89405152E-05 -0.53100922E-05 -0.32237691E-04  0.25115104E-03 -0.31756701E-03
  0.43730477E-03  0.19318726E-03  0.41397472E-04 -0.63938267E-03 -0.18631555E-03
  0.10933956E-03  0.16298120E-03  0.27928995E-04 -0.25961368E-04  0.22144893E-04
  0.54355547E-05 -0.58152095E-05 -0.11196306E-04 -0.34040986E-05  0.16268428E-04
  0.64611590E-05  0.16213902E-03  0.48242204E-03  0.33960231E-03  0.70685438E-03
 -0.11895707E-03 -0.36937578E-03  0.37836255E-03  0.18441604E-04  0.39607178E-03

 -0.30898278E-04 -0.18435345E-04  0.26466151E-04  0.26275234E-04 -0.31261471E-04
  0.10041938E-04  0.10724175E-04  0.38710047E-05 -0.79577445E-05 -0.85319840E-05
  0.22753267E-04 -0.81504444E-04 -0.94200204E-05 -0.25696355E-04  0.50214177E-05
 -0.33515924E-04 -0.72030656E-05 -0.12997727E-04  0.58977093E-03  0.29918279E-03
  0.79760002E-04 -0.67168712E-03  0.22367655E-03  0.18875315E-03 -0.37311430E-03
 -0.12844935E-03  0.38734077E-04 -0.91066015E-05 -0.26300703E-04 -0.62577150E-05
 -0.42233357E-05  0.10197399E-04  0.31398256E-04  0.31648754E-05  0.14488319E-04
  0.45281209E-05  0.10168687E-03 -0.16533534E-03 -0.32115778E-03  0.11015573E-03
  0.15572438E-03  0.54061070E-03  0.29812646E-03  0.33696011E-03  0.27704608E-03
  0.23896015E-04  0.90022690E-05 -0.24474828E-04  0.53470074E-05 -0.12844585E-04
  0.50674536E-04 -0.67009424E-05  0.32838249E-04 -0.58225640E-05 -0.11398807E-04
  0.29442717E-04  0.55257938E-04 -0.25160263E-05 -0.32305799E-05  0.33128195E-04
  0.20898909E-04 -0.32505331E-08 -0.15996867E-04  0.19239626E-04 -0.27874824E-04
 -0.18172894E-04  0.18864065E-04  0.28401435E-04 -0.17995009E-04  0.79417119E-06
 -0.78140175E-05  0.24720326E-04  0.12065734E-04  0.78915294E-05  0.31566541E-04
  0.16102383E-05  0.34045109E-05 -0.20542475E-04 -0.83131654E-05  0.32469123E-05
 -0.78592719E-06 -0.11660281E-04  0.18551808E-04  0.79956664E-05  0.74925515E-05
 -0.19282935E-04  0.45693271E-04 -0.50599940E-05  0.16902592E-04 -0.17437556E-04
 -0.32345851E-04  0.12277519E-04 -0.35355379E-04 -0.15120973E-04 -0.12008159E-03
  0.14651250E-03 -0.18464726E-03  0.38384654E-04 -0.24865082E-03 -0.92555081E-05
 -0.32308591E-05 -0.18976488E-04 -0.18796439E-04 -0.46100096E-06  0.36157283E-04
  0.10413052E-04 -0.45352120E-04 -0.31855788E-04 -0.29038026E-03 -0.15904347E-04
  0.52918299E-03  0.12636586E-03 -0.16604180E-04 -0.15554110E-03  0.24899392E-03
  0.34554616E-03 -0.54655070E-04 -0.36552854E-04 -0.11049273E-03 -0.64009730E-04
 -0.40678322E-05  0.83607446E-04 -0.72210903E-04  0.51460161E-04  0.93933374E-04
  0.18462423E-03 -0.68986072E-03 -0.54312795E-04  0.52679715E-02  0.49446485E-03
  0.54019977E-03 -0.35238738E-03 -0.33754843E-03  0.32416608E-03  0.11075297E-02
 -0.44275975E-04 -0.90729614E-06 -0.40443133E-04  0.74677427E-05  0.22283427E-04
 -0.22100677E-04 -0.13524427E-05 -0.63373472E-05 -0.19080807E-04  0.14604716E-03
 -0.59146351E-04  0.23771843E-03  0.49305518E-04  0.24982937E-03 -0.11308432E-03
  0.69860389E-04 -0.82596049E-04  0.12969174E-04 -0.17478624E-04  0.49763034E-05
  0.41539434E-06 -0.43779695E-05 -0.13216997E-04  0.44729037E-04 -0.50629715E-05
  0.38062654E-05  0.14344154E-05 -0.47015879E-05 -0.13048981E-04 -0.65140610E-05
  0.52559926E-05  0.72625727E-05  0.28452245E-05  0.44788605E-05  0.20202923E-04
 -0.27916919E-04  0.61448974E-05 -0.62056087E-05  0.29576052E-04 -0.93748278E-06
  0.32416206E-05 -0.11866360E-05 -0.53236104E-05 -0.10946786E-04 -0.85368638E-05
 -0.11931757E-04  0.53109276E-05 -0.15773554E-04  0.82403085E-05  0.12203393E-04
  0.67145679E-05  0.79643388E-05  0.97876493E-05  0.18560324E-04  0.26043370E-04
  0.37239371E-04 -0.22062998E-04 -0.23783800E-04 -0.33211083E-04  0.21301545E-04
  0.16132659E-05 -0.50965514E-05  0.42840882E-05  0.86329808E-04  0.54448315E-03
 -0.17903590E-03  0.21924904E-03 -0.80800823E-03  0.12015499E-02 -0.21609891E-04
 -0.31637590E-03 -0.49495606E-03 -0.93162432E-05 -0.27931606E-04 -0.38951846E-05
 -0.84322689E-05  0.42267346E-04 -0.66951894E-05  0.20868303E-04 -0.65830172E-06
  0.93094134E-05 -0.20185026E-03 -0.15714786E-03 -0.12805673E-03  0.13813924E-03
 -0.32803964E-04 -0.69334884E-04  0.64275483E-04  0.57799587E-04 -0.31834395E-03

 -0.53239582E-05 -0.16795872E-04  0.12021501E-04 -0.23705099E-04  0.26026225E-04
  0.35979258E-04 -0.68586063E-05 -0.95033124E-05 -0.10332278E-04 -0.37022478E-04
  0.78228653E-05 -0.27431911E-04  0.53916841E-04 -0.16386014E-04  0.17737753E-06
 -0.28731548E-04 -0.89149319E-05 -0.17101820E-04  0.57491072E-03  0.33950931E-03
  0.19651927E-03 -0.23042307E-03  0.12084851E-03  0.21377281E-03  0.23389892E-03
  0.16240694E-03  0.44672308E-04 -0.26174501E-04  0.47406799E-05 -0.14837850E-04
 -0.17513074E-04  0.38915453E-04  0.14446846E-04  0.18987330E-04  0.14710482E-04
  0.45330895E-04 -0.33010296E-03 -0.17009444E-03 -0.14659881E-03 -0.42601490E-03
  0.12602020E-03 -0.33630377E-03 -0.56459183E-03 -0.62546826E-03 -0.20636810E-03
  0.32693082E-04 -0.35333019E-04 -0.27231038E-04  0.25578753E-04 -0.21824164E-05
  0.10519135E-04 -0.17552851E-05  0.74427998E-05 -0.20469865E-05  0.62711391E-05
  0.45869034E-04  0.55900052E-05  0.20254656E-04  0.34862715E-04 -0.10478728E-04
 -0.10032146E-04  0.25747055E-04 -0.12585641E-04  0.26456809E-04  0.21586249E-04
  0.15650006E-04  0.32330897E-04 -0.95098838E-05  0.14950062E-04 -0.16496090E-04
 -0.12684645E-04  0.22720584E-05  0.12116783E-04 -0.60308025E-05 -0.34711062E-04
  0.38115831E-05 -0.33312977E-04  0.31243220E-04  0.11108215E-04 -0.12668426E-04
 -0.15796174E-05  0.67263127E-04  0.88731581E-05 -0.13346167E-04  0.18315249E-05
  0.11736727E-04  0.38687799E-04  0.11607666E-05 -0.89531666E-06 -0.37513370E-04
  0.11550443E-03  0.25857844E-03 -0.35786876E-03 -0.52145279E-04  0.39169735E-03
 -0.13063746E-03 -0.10002504E-03  0.91344978E-04 -0.43367292E-03  0.37547550E-05
 -0.72194919E-05  0.25406189E-04 -0.10166566E-04  0.28358049E-04  0.21707535E-04
  0.46074092E-04 -0.46641700E-04 -0.34291268E-04 -0.60218370E-03 -0.24772221E-03
 -0.92372778E-04 -0.69899968E-03  0.34352490E-03 -0.12609149E-03  0.60633196E-04
  0.73442552E-04 -0.39203430E-03 -0.21638370E-03 -0.22508757E-03 -0.10576927E-04
 -0.37479284E-04  0.23473918E-04 -0.11377800E-03  0.19995684E-03 -0.78466535E-05
 -0.26893410E-04  0.11782538E-03 -0.20965833E-02  0.49446485E-03  0.11004101E-01
 -0.51263772E-02 -0.16550590E-02 -0.18739094E-02 -0.14905601E-02  0.11818840E-02
  0.11305809E-07  0.62384695E-05 -0.28830795E-04  0.14258561E-04  0.21296126E-04
  0.27824767E-04 -0.25043437E-05  0.54883520E-05  0.38396651E-04  0.99896132E-04
  0.80470317E-04 -0.11252915E-03 -0.30236484E-03  0.88066228E-04  0.12610209E-03
  0.11450359E-03  0.96383571E-05  0.30192686E-03 -0.53916078E-05  0.23482466E-04
 -0.49234657E-04  0.12326382E-04  0.54006859E-04 -0.18331180E-04 -0.32170403E-05
  0.93095716E-05  0.19701368E-04 -0.16479412E-04 -0.19031154E-04 -0.19412629E-05
 -0.26578225E-05 -0.90285591E-05  0.36546443E-04 -0.16094453E-04  0.14540762E-05
  0.28390749E-05 -0.23533304E-04  0.19837048E-04  0.13318677E-04  0.13289667E-04
 -0.61765349E-05  0.16167554E-04 -0.28552820E-04 -0.66419936E-05 -0.29997229E-06
  0.12977325E-04  0.41142479E-04  0.11625855E-04  0.38094575E-04 -0.63023814E-05
 -0.21117520E-05 -0.20501346E-04 -0.99742644E-05 -0.69630107E-05  0.56741841E-04
  0.14542365E-04 -0.98463703E-05 -0.34917968E-04  0.39037991E-04  0.65692818E-05
 -0.14864104E-04 -0.37222671E-05  0.33519442E-05 -0.21913896E-03  0.61053831E-03
 -0.21457575E-03  0.79898262E-03 -0.12325079E-03 -0.56307687E-03 -0.20858462E-03
 -0.64722619E-03  0.34315177E-04  0.34155977E-04  0.14177042E-04  0.12137471E-04
  0.39427733E-04  0.31550225E-04 -0.68624962E-05 -0.23709020E-04  0.13057803E-04
  0.14899880E-04 -0.31138039E-03 -0.47772803E-03  0.51065102E-03  0.18764820E-02
 -0.28583512E-03 -0.29201850E-03  0.44098943E-04  0.35075010E-03 -0.92564508E-04

 -0.22701534E-04  0.21201591E-04  0.83888282E-05  0.26437662E-04 -0.46159917E-04
 -0.18962937E-04  0.87546412E-05 -0.16056093E-04 -0.34326884E-04  0.26106245E-04
  0.88699553E-05 -0.40731213E-04  0.19641736E-04 -0.87591664E-04  0.36029269E-04
 -0.25886138E-04  0.18920288E-04 -0.16852705E-04 -0.25834709E-03 -0.51464240E-03
 -0.27523985E-03 -0.16667583E-03 -0.99326535E-04  0.67570749E-05  0.55415092E-03
  0.39990385E-04  0.30069435E-03  0.41953757E-04 -0.10333451E-04 -0.82022916E-05
 -0.27477131E-04  0.38187648E-04  0.40977900E-04 -0.37696048E-06 -0.20480403E-04
 -0.16737283E-04  0.19008915E-03  0.12992009E-04 -0.16820036E-03  0.18098731E-03
  0.68572851E-03 -0.55910221E-06  0.24981823E-03  0.21214161E-03  0.11110210E-02
 -0.21758837E-04  0.43627536E-04 -0.26659032E-04 -0.16135429E-04  0.53588276E-04
 -0.98513377E-05 -0.24000116E-04  0.78923531E-05 -0.18451913E-05 -0.29549872E-04
 -0.74939362E-04  0.32364138E-06 -0.12507881E-04 -0.11880867E-03  0.38319809E-04
  0.33854772E-04 -0.17755459E-04 -0.37603312E-05 -0.23014470E-04 -0.63687258E-04
 -0.16513242E-04 -0.98824386E-05  0.10066820E-04 -0.58069024E-05  0.57544443E-05
  0.25622583E-04  0.21273211E-04 -0.30829282E-04 -0.16625499E-04  0.18051355E-04
  0.14024259E-04  0.76953778E-04 -0.25031435E-04  0.27282320E-04  0.22332270E-05
 -0.25057742E-04 -0.15817926E-04  0.51801534E-04  0.19410841E-05 -0.81789882E-05
 -0.30247623E-04  0.11981631E-04 -0.20285651E-04  0.45893396E-05  0.28016406E-04
  0.33424248E-03 -0.18370664E-03  0.12380112E-03  0.26316281E-03 -0.83802923E-03
 -0.19867954E-03 -0.46647954E-04  0.17761933E-03 -0.31436702E-04  0.49521020E-04
  0.45875921E-04 -0.23185992E-04  0.17529002E-04 -0.38846750E-04  0.22985227E-04
 -0.11883539E-04  0.51031999E-04 -0.12879204E-04 -0.11240396E-03  0.10139407E-02
  0.74819584E-03  0.28149186E-03 -0.16106290E-02  0.93539285E-03  0.42237842E-03
 -0.28586448E-03  0.35498835E-03  0.38138704E-03 -0.85990349E-04  0.11816816E-04
 -0.20766712E-03  0.32547084E-03  0.10369447E-03 -0.99480603E-04  0.12263696E-03
  0.93263277E-04 -0.16335711E-02  0.22744733E-02  0.54019977E-03 -0.51263772E-02
  0.19262872E-01 -0.23598140E-02 -0.45715668E-02  0.60386937E-03  0.77313342E-03
 -0.38767966E-05 -0.15601205E-05  0.41119528E-04 -0.10592175E-06 -0.30779007E-04
 -0.60759868E-04  0.17974444E-05 -0.32822229E-04 -0.44752160E-04 -0.12809807E-03
  0.35633790E-03  0.97592355E-04  0.27858171E-03 -0.10330811E-03 -0.32667113E-03
  0.49166575E-03 -0.25938714E-03  0.15407139E-03 -0.24174929E-04  0.28860395E-04
 -0.91452547E-05  0.69311975E-05 -0.84461901E-04  0.15700695E-06 -0.28675843E-04
 -0.12679010E-04 -0.78814549E-05  0.11282411E-04  0.13628781E-03  0.30737460E-04
  0.16574138E-04  0.10019397E-04 -0.35589639E-04 -0.22130696E-05  0.65503516E-06
  0.95629630E-05 -0.14902043E-04 -0.18387914E-04  0.14127971E-04 -0.25051819E-06
 -0.42615642E-05 -0.71503370E-05  0.20804277E-04 -0.12307252E-05 -0.30792341E-05
  0.30317448E-04 -0.79096976E-04  0.48498415E-04 -0.45408740E-04  0.10263430E-03
 -0.18814764E-04  0.93843676E-05  0.91658522E-05  0.28970078E-04 -0.38158304E-04
  0.10800558E-04  0.13855695E-04 -0.97830547E-05 -0.83382809E-04  0.27668442E-04
 -0.18800628E-04  0.26725592E-05  0.27975362E-04  0.25193808E-03  0.71809929E-04
 -0.10212866E-02  0.49626815E-03 -0.17814950E-02  0.12499437E-02 -0.48489751E-03
 -0.82474009E-03 -0.16282846E-03 -0.30976255E-04 -0.42211273E-04 -0.76975673E-05
 -0.46037298E-04  0.27723736E-04  0.17648144E-06  0.28404209E-04 -0.12377238E-04
  0.26915182E-05  0.34255328E-03 -0.82330201E-04 -0.46822708E-03 -0.32297593E-03
 -0.11443033E-02 -0.66089473E-04  0.12744767E-03  0.13375883E-04  0.48192551E-03

 -0.43625879E-06 -0.82507057E-05 -0.28143445E-04  0.20082545E-04 -0.18291877E-05
 -0.35103489E-04  0.52625886E-06  0.17027276E-04  0.28200556E-05  0.26489525E-06
  0.77774023E-05  0.50744114E-04 -0.12865473E-04  0.14506920E-04  0.13716301E-05
  0.27951598E-04 -0.55136435E-05  0.11967908E-04 -0.22285537E-03 -0.10435894E-03
  0.12505714E-03  0.59381269E-03 -0.28175959E-03  0.15136292E-03 -0.31008266E-04
  0.23341330E-03 -0.16564940E-03 -0.93077810E-05 -0.19084518E-04  0.38857785E-05
  0.10953859E-05 -0.66228193E-05 -0.73805395E-05 -0.31222289E-04 -0.59554502E-05
 -0.19775424E-05 -0.40995846E-04 -0.13785472E-03  0.24693134E-03  0.86107249E-04
 -0.72771989E-03  0.78478701E-03  0.11438188E-03  0.20040791E-03 -0.24766796E-03
  0.18382386E-04  0.13148856E-04  0.16118305E-04  0.10624411E-04 -0.37293144E-04
  0.36383923E-04  0.50649382E-05 -0.22098248E-04  0.17085218E-04 -0.25492392E-04
 -0.94365313E-05 -0.21243274E-05  0.41514363E-05  0.19595548E-04 -0.16803564E-04
  0.55856770E-05  0.87272299E-05  0.15195033E-04 -0.26745344E-05  0.78478020E-05
  0.14937046E-04  0.87531725E-05 -0.14550015E-04  0.15417687E-04 -0.74581932E-05
  0.24524989E-05 -0.30994879E-04  0.10677559E-04 -0.15881832E-04 -0.57522679E-05
 -0.52373585E-06  0.18448528E-04 -0.16015424E-05 -0.10520849E-04 -0.80847021E-05
 -0.18643595E-04  0.56035752E-05  0.27326261E-04 -0.32982219E-04  0.13465044E-04
  0.35653872E-04 -0.60076724E-04  0.42348159E-05 -0.12435630E-04 -0.62349385E-05
 -0.22700962E-04 -0.90773128E-04 -0.11319380E-03  0.73404393E-05  0.34698533E-03
 -0.51333595E-03  0.73689516E-04  0.17417273E-05 -0.13042010E-03 -0.19263319E-04
  0.31238560E-04  0.18859753E-04  0.16911573E-04  0.17667599E-04 -0.40002266E-05
 -0.10945482E-04 -0.13829351E-04 -0.18875656E-04  0.57646625E-04  0.15327666E-03
 -0.73757448E-04  0.37411839E-03 -0.55278123E-05  0.28194395E-03 -0.82873320E-04
  0.35515777E-03  0.38695594E-03 -0.79838110E-04 -0.95453501E-04  0.84521070E-04
 -0.27483367E-04  0.50571174E-04 -0.11477293E-03  0.25726846E-04 -0.77062166E-04
 -0.12964257E-03 -0.37789257E-04 -0.13328946E-02 -0.35238738E-03 -0.16550590E-02
 -0.23598140E-02  0.83773434E-02  0.24119231E-04 -0.18119212E-02 -0.51590046E-04
  0.88992683E-05  0.20761641E-05 -0.28834619E-04  0.16013687E-04  0.21994865E-04
 -0.89296113E-06  0.18733118E-04  0.99101212E-05  0.85754054E-04  0.18923615E-03
  0.10349773E-03 -0.27420159E-03 -0.71104505E-04 -0.32518750E-03  0.62441563E-04
 -0.27119639E-03  0.85532171E-04 -0.13398008E-03  0.21428454E-04  0.24516298E-04
  0.41594810E-04 -0.99092436E-05  0.62398627E-06  0.28900785E-04  0.39493535E-05
  0.39107439E-04  0.80715798E-05  0.89676318E-06 -0.86488041E-05 -0.56519958E-04
  0.21466220E-05  0.74572118E-05  0.60226615E-05  0.55451055E-05 -0.19857108E-04
 -0.37964606E-04  0.11285700E-04 -0.22778369E-04  0.10889927E-04  0.33250462E-04
 -0.16649432E-04 -0.41527517E-04  0.51457675E-06  0.67895575E-05  0.94606149E-05
 -0.21752606E-04 -0.57717361E-05 -0.19441283E-04  0.94369180E-05 -0.21434458E-04
 -0.19288824E-05 -0.25991480E-05  0.27075989E-04  0.24795760E-04 -0.48747654E-06
  0.14484093E-04 -0.45054847E-05 -0.64966287E-05 -0.11846396E-04  0.92122900E-05
 -0.25700734E-04 -0.18793771E-05  0.20605213E-04  0.21215486E-03  0.86645600E-04
  0.15175500E-03 -0.24564908E-03  0.83632762E-04  0.83029169E-03 -0.12546681E-03
 -0.81470986E-04  0.40548940E-05 -0.81815838E-05  0.71625015E-05 -0.25091715E-05
 -0.24949181E-04  0.13503689E-04  0.35472640E-04  0.77928913E-05 -0.66313257E-05
 -0.30878684E-04 -0.18406239E-03  0.10999510E-03 -0.10812324E-02 -0.14244926E-02
  0.32021089E-03  0.52963907E-03 -0.11649466E-03 -0.35234514E-03 -0.51299680E-04

  0.11463523E-04 -0.15972986E-04  0.63878219E-05 -0.11628809E-04 -0.39877501E-04
 -0.45969723E-05  0.74426918E-05  0.14649607E-04  0.52129500E-05 -0.85635435E-05
  0.30174868E-04  0.18191606E-04 -0.42702232E-04  0.42814895E-04 -0.10318049E-05
  0.42057732E-05 -0.40833317E-05 -0.51052826E-05 -0.37408149E-03 -0.14188504E-03
 -0.10059411E-03  0.45741198E-04 -0.61710310E-04 -0.21401596E-03 -0.64617596E-03
 -0.33357701E-03 -0.24586896E-03 -0.15807782E-04 -0.18006957E-04  0.70591641E-05
  0.19147967E-04 -0.42712603E-04 -0.39644968E-04 -0.22318669E-04  0.14995268E-04
 -0.10224689E-04  0.12260717E-03  0.22633973E-03  0.42067381E-03 -0.11839952E-03
 -0.18859924E-03 -0.25888930E-04  0.13526717E-03  0.14640416E-03 -0.44316023E-03
 -0.11309145E-04  0.21490274E-04  0.12563883E-04 -0.29685933E-04 -0.37692767E-04
  0.30358559E-08  0.27993023E-05 -0.93190525E-05 -0.15083178E-04  0.36534590E-05
 -0.31923857E-04 -0.10879688E-04  0.75147004E-05  0.29789870E-04 -0.21302429E-04
  0.14103959E-05  0.41743895E-05  0.10993505E-04 -0.91546602E-05 -0.25342715E-05
 -0.21360764E-05 -0.30265920E-04  0.18246523E-04 -0.14088702E-04  0.26925004E-05
 -0.17783629E-04 -0.10710958E-04  0.13805815E-04  0.30788068E-05  0.38983094E-05
 -0.18981111E-04 -0.68876483E-05 -0.22461007E-05 -0.61160554E-05 -0.44577685E-05
  0.16481398E-04 -0.19566900E-04  0.24950013E-04  0.38830018E-05  0.14508874E-05
  0.11211044E-04 -0.23274692E-04  0.55158141E-05  0.11016163E-04  0.20435639E-04
 -0.27315800E-03  0.19849058E-03  0.21778734E-03 -0.13681841E-03  0.27354759E-03
  0.23616521E-03  0.18490753E-03 -0.89761939E-04  0.26472186E-03  0.18646644E-05
 -0.24128792E-04 -0.40978115E-04  0.15308866E-04  0.26718102E-05 -0.33364119E-04
 -0.15148284E-04  0.51432039E-05  0.48649446E-04  0.67187947E-03 -0.37569657E-03
 -0.45845018E-03 -0.31808202E-03  0.28999448E-03  0.24322339E-03 -0.29112706E-03
 -0.27071653E-03 -0.17134166E-03 -0.16233509E-03  0.29693582E-03 -0.80121827E-04
  0.27806072E-03 -0.15782174E-03  0.70577357E-04  0.75171323E-04 -0.40342710E-04
  0.38536586E-04  0.17028805E-02 -0.40690643E-03 -0.33754843E-03 -0.18739094E-02
 -0.45715668E-02  0.24119231E-04  0.72011401E-02  0.40523597E-03 -0.12708080E-02
  0.80305566E-05  0.27565870E-04  0.27602264E-04 -0.15754067E-05  0.27248803E-05
  0.10474711E-04 -0.31250401E-04  0.10242122E-04 -0.38173039E-04  0.70113421E-04
 -0.12409822E-03  0.20033137E-03 -0.72629794E-05  0.37783733E-03  0.23302887E-04
 -0.39188194E-03  0.24798409E-03 -0.97081196E-04  0.22630646E-04 -0.22719913E-04
  0.12932698E-04 -0.11472010E-04  0.15379398E-04 -0.10569692E-04  0.27728223E-04
 -0.92185593E-05  0.54573926E-05  0.17433040E-05 -0.46260577E-04 -0.79642535E-05
 -0.27155842E-04  0.24800884E-04 -0.25536328E-05  0.65748196E-05  0.42361826E-06
  0.24307780E-05  0.23937826E-04 -0.99852779E-05 -0.54147102E-05 -0.35120665E-04
  0.32235568E-04  0.23267429E-06 -0.14366026E-05 -0.24533969E-05  0.48663676E-05
 -0.50673145E-05 -0.14469378E-04 -0.28953561E-04 -0.59588399E-05 -0.54866447E-04
  0.47348940E-05  0.52373096E-05  0.73139467E-05  0.17963344E-05 -0.16855159E-04
 -0.34526416E-04  0.22854227E-05  0.30547570E-04 -0.16196468E-04 -0.16588100E-04
  0.12462781E-04 -0.20655166E-05 -0.16154792E-04  0.63236915E-04 -0.52792944E-03
  0.27091153E-03 -0.59129224E-03  0.67594636E-03 -0.26925296E-03  0.33914184E-03
  0.64268660E-03 -0.26264205E-03 -0.12436255E-04  0.22647786E-05 -0.52031340E-06
  0.14424569E-04 -0.49096362E-04 -0.50664428E-05 -0.11437057E-04 -0.51090866E-05
 -0.15137852E-04  0.25585423E-04  0.51958338E-03 -0.83966827E-04 -0.46166247E-03
  0.41379704E-03  0.16452145E-03 -0.24969390E-03  0.11185825E-03 -0.13838723E-03

 -0.10275032E-04  0.10224631E-04 -0.13439864E-04  0.67641495E-05  0.80063839E-06
 -0.46814751E-05 -0.43188023E-05  0.28171887E-05 -0.52635398E-05 -0.34539898E-05
 -0.16372685E-04 -0.33841427E-04  0.24457224E-05 -0.97332344E-05 -0.36064313E-05
 -0.11264731E-04  0.16962254E-04 -0.15573580E-04 -0.30512385E-03 -0.16142439E-03
 -0.20731412E-03 -0.18119423E-03  0.81434435E-04 -0.22618300E-03 -0.12900562E-03
 -0.28448732E-04  0.10117495E-03 -0.82812473E-05  0.15384370E-04 -0.87360788E-05
 -0.46317262E-05  0.14356459E-04 -0.46008820E-04  0.11190036E-04 -0.26707214E-04
 -0.12300008E-04  0.23062215E-03  0.22296542E-03  0.17967018E-04  0.28869623E-04
  0.24518397E-03 -0.29463795E-03  0.17171790E-03  0.14186434E-03 -0.61540509E-04
 -0.31475110E-05 -0.74784618E-05  0.33239907E-04  0.68154347E-05  0.69867032E-06
 -0.56939695E-05 -0.74420607E-06  0.18705989E-04  0.18782065E-05  0.80022943E-05
 -0.17883192E-05 -0.19980657E-04  0.16899239E-04 -0.82218383E-05 -0.30750665E-05
  0.76510672E-05 -0.70944437E-05  0.15668008E-04  0.33863371E-05 -0.43281456E-05
 -0.11971797E-04 -0.15648833E-04  0.21942442E-04 -0.48135923E-05 -0.27032773E-05
 -0.79356283E-06 -0.96995006E-05 -0.28899679E-04  0.72329588E-05  0.16824720E-04
 -0.21244265E-04  0.31818546E-05 -0.12366361E-04 -0.16054982E-04 -0.17873106E-05
 -0.67138900E-06 -0.24353817E-04 -0.22911882E-04  0.11768709E-04  0.19431482E-05
 -0.32669803E-04  0.91170038E-05 -0.16912547E-05  0.11841600E-04  0.54016250E-05
  0.48045774E-04  0.15879559E-03  0.16395005E-03 -0.11970658E-04 -0.90228486E-04
  0.13981623E-03 -0.14680217E-04 -0.10149777E-03  0.22022464E-03 -0.29992614E-05
 -0.71606432E-05  0.24525570E-05 -0.78685265E-05  0.67863175E-05  0.94535710E-05
 -0.35848173E-05 -0.19535332E-05 -0.63239019E-05 -0.11840927E-03 -0.20733809E-04
 -0.26741902E-03 -0.64568514E-03  0.34059600E-03  0.39667124E-03 -0.23322282E-04
  0.84727169E-04  0.33864258E-03  0.24203346E-04  0.94480434E-05 -0.80049365E-04
  0.50475039E-06  0.20090055E-04 -0.21601186E-04 -0.44003576E-04 -0.15584624E-04
  0.13772505E-03 -0.84991517E-04  0.41670074E-03  0.32416608E-03 -0.14905601E-02
  0.60386937E-03 -0.18119212E-02  0.40523597E-03  0.39971600E-02 -0.93452552E-03
  0.14504726E-04 -0.22482298E-05  0.24243846E-04 -0.12805154E-04 -0.48705170E-05
 -0.13893940E-04  0.12461124E-04 -0.50091452E-05 -0.15778060E-04  0.16558700E-05
  0.16441110E-05  0.85695014E-04  0.36965386E-04  0.14128609E-03  0.10469385E-03
  0.19309215E-04 -0.14902863E-03 -0.11753960E-04 -0.19294766E-04 -0.14161732E-04
  0.54887980E-05  0.51141458E-05 -0.30278494E-04  0.38615439E-04  0.12028799E-04
 -0.16850127E-06 -0.46438447E-05  0.81202870E-06  0.34497820E-05  0.34286903E-04
  0.52274406E-05 -0.15916523E-04 -0.45632270E-04 -0.70598214E-05 -0.50469050E-05
 -0.90591878E-05  0.10875294E-04  0.33434532E-05 -0.10856113E-04 -0.20190701E-04
  0.54566345E-05  0.29527405E-05  0.13433627E-05 -0.11009273E-04 -0.21241905E-04
  0.10020117E-05 -0.20369405E-05 -0.20165660E-04 -0.15283448E-04  0.27488005E-04
  0.23028721E-04  0.19530814E-04 -0.44710386E-05  0.62094373E-05 -0.19027232E-04
 -0.36287394E-05  0.38401698E-05 -0.17064975E-04  0.18876293E-04  0.30980511E-05
  0.23619551E-05 -0.65528242E-05 -0.12535716E-04 -0.73916062E-04 -0.10815347E-03
  0.30424653E-03 -0.27318424E-03  0.60435216E-04 -0.47587125E-03  0.88177057E-04
  0.11381562E-03 -0.33503554E-03 -0.19819241E-05 -0.17343015E-04 -0.11050661E-04
  0.52741279E-05  0.97000396E-05 -0.51007759E-05 -0.10961102E-05  0.35877070E-08
  0.90911913E-05 -0.23261377E-03  0.53956609E-04 -0.20035070E-03  0.47688516E-03
  0.69835690E-04 -0.32663583E-03 -0.16500667E-04 -0.43794774E-04 -0.16006398E-03

  0.38322327E-05 -0.25459895E-04  0.95696367E-05  0.11394332E-05 -0.32310973E-04
  0.20425260E-04  0.12235610E-04 -0.14058844E-04  0.51634206E-05 -0.56658215E-05
  0.22252157E-04 -0.41434951E-05  0.14542449E-04 -0.18675922E-04  0.13305635E-04
 -0.27446919E-04  0.20535951E-05  0.10922408E-05  0.61090128E-04  0.12618387E-03
 -0.10925528E-03 -0.62562981E-03  0.30853973E-03  0.85179834E-04  0.47103865E-04
 -0.26751722E-04  0.13992480E-03  0.18062687E-05  0.15657450E-04  0.11928201E-04
 -0.92057635E-05  0.20858131E-04  0.46378025E-04  0.11191678E-04 -0.99653402E-05
 -0.90043128E-05  0.19766193E-03 -0.17912106E-03 -0.26665042E-03  0.11777468E-03
  0.42854885E-03  0.18194393E-03  0.18746678E-03  0.13927740E-04  0.44508397E-03
 -0.27847781E-06 -0.12368333E-04  0.69370831E-05  0.11008539E-04 -0.70626638E-05
 -0.21234483E-04 -0.10494764E-04 -0.23860209E-04 -0.99039136E-05 -0.89795406E-05
  0.10011605E-04 -0.43870876E-05  0.14868181E-05 -0.12432292E-04  0.24675729E-05
 -0.59661582E-05  0.73963006E-05 -0.26499747E-05 -0.79400555E-05  0.70412455E-06
  0.29183376E-06 -0.11581000E-04  0.29572421E-04  0.21128752E-04  0.35734527E-05
  0.11720612E-04  0.50844827E-05  0.51713054E-05 -0.34423106E-05  0.88718493E-05
  0.86646307E-05 -0.21331703E-06 -0.10686245E-04  0.59001522E-05 -0.88270648E-05
  0.34608874E-05  0.54863570E-05 -0.25388448E-05  0.28900457E-04  0.14561718E-04
  0.11603934E-04  0.10420018E-04 -0.78189203E-05 -0.79909300E-05 -0.54689219E-04
 -0.92295464E-05  0.27522662E-03 -0.28378554E-03  0.12189719E-04 -0.28691785E-03
  0.36051796E-03  0.13585425E-03  0.38946746E-04  0.60306170E-04  0.50564660E-05
  0.15518688E-04  0.59664254E-04 -0.12467293E-04 -0.15699092E-04  0.62789148E-04
  0.16212923E-04 -0.20165048E-04 -0.45301301E-04 -0.20769022E-03 -0.49580095E-05
  0.95393904E-03 -0.70850920E-03 -0.21901995E-03  0.58249641E-03 -0.15342914E-04
 -0.33666600E-04 -0.15099722E-03 -0.87479388E-04 -0.12866902E-03 -0.17698895E-03
 -0.58900483E-05  0.63367025E-04 -0.11308615E-03  0.64098406E-04  0.19275833E-03
  0.17451280E-03 -0.16635550E-03 -0.42349879E-03  0.11075297E-02  0.11818840E-02
  0.77313342E-03 -0.51590046E-04 -0.12708080E-02 -0.93452552E-03  0.72572045E-02
 -0.10334925E-04  0.76799027E-05  0.10962856E-04  0.12473222E-04  0.23824814E-04
 -0.37098218E-04 -0.13437424E-05  0.16598106E-04 -0.85150124E-05  0.17986082E-03
 -0.27252856E-04 -0.19848041E-03  0.70734523E-04  0.16857875E-05 -0.16205650E-04
  0.25026568E-05  0.40786644E-04 -0.24607601E-03  0.10379777E-04  0.18425980E-04
 -0.11367677E-04 -0.42181833E-05  0.22214700E-05  0.12977336E-05  0.10545324E-04
 -0.82814978E-06  0.15001029E-04  0.21518743E-05  0.10780083E-04 -0.17471292E-04
 -0.13628088E-04  0.26905578E-04  0.15307785E-04  0.12160486E-04  0.10111516E-04
  0.17831791E-04 -0.75314015E-05 -0.39471372E-05  0.23670066E-04  0.18848682E-04
 -0.15857438E-04  0.46304851E-05 -0.61093698E-05  0.13198744E-05 -0.13725327E-04
 -0.84183350E-05  0.46189620E-05  0.19852961E-04  0.10092252E-04  0.12507847E-04
 -0.13492024E-04 -0.13972945E-04  0.46392346E-06 -0.34412510E-05  0.81414248E-07
 -0.17879473E-04 -0.54659019E-05  0.21328522E-04 -0.60769129E-04 -0.64027154E-05
 -0.64694576E-05 -0.17308366E-05 -0.30497369E-05  0.13472521E-03  0.29508332E-03
 -0.44359129E-03 -0.11210940E-04 -0.80317758E-03  0.17897454E-02 -0.22905486E-03
 -0.15559049E-03  0.31688918E-03  0.48821558E-05  0.12120572E-05  0.15631017E-04
  0.11007058E-05  0.44887376E-05 -0.41033933E-05  0.19998922E-05 -0.28977860E-05
 -0.69134533E-05 -0.61538239E-04 -0.24212137E-03 -0.38956026E-04  0.26077467E-03
 -0.70365126E-04 -0.37264811E-03  0.12333607E-03  0.11232380E-04 -0.27050080E-05

 -0.10261001E-05  0.49408466E-06 -0.18250112E-05  0.94906542E-06  0.19710315E-06
 -0.23901433E-06 -0.66991649E-06 -0.60131235E-07 -0.15935823E-06 -0.41752801E-07
 -0.20035114E-05 -0.29669558E-06  0.44526140E-06  0.16290924E-05 -0.27647727E-05
  0.50928810E-06  0.12145680E-05 -0.11971672E-05 -0.21031301E-04 -0.36249717E-04
  0.15355678E-05  0.50659772E-05  0.29367015E-04 -0.10787595E-04  0.88495298E-05
  0.43670613E-05 -0.13139637E-04  0.21760153E-05  0.12019922E-08 -0.22053460E-05
 -0.26026908E-05 -0.98445448E-06  0.16885880E-05  0.26169096E-06 -0.22956564E-05
  0.65796541E-07 -0.51661699E-05  0.63186529E-05 -0.70588682E-05  0.22706061E-04
 -0.40950836E-04 -0.13143497E-04 -0.33459220E-04 -0.17380932E-04 -0.50297231E-05
 -0.66467856E-06  0.28629784E-06  0.93022503E-06 -0.82130865E-06 -0.21642256E-06
  0.76700241E-06 -0.45317616E-06  0.37199970E-06  0.12110634E-05  0.65340816E-06
 -0.14800729E-05 -0.41754178E-06  0.40952547E-06 -0.22058440E-06  0.25928670E-05
 -0.26185914E-07  0.47351019E-06 -0.14512305E-06  0.15303430E-05  0.91902352E-06
  0.10127390E-07 -0.44772771E-07  0.14309639E-05 -0.65693571E-06  0.57896240E-06
  0.58375101E-06  0.21374249E-07 -0.34811994E-05 -0.77388864E-06  0.23441031E-07
 -0.11784988E-05 -0.36281431E-06 -0.12307205E-05  0.57361371E-06  0.56870684E-07
 -0.11909540E-05 -0.14585913E-05  0.61299184E-06 -0.10746162E-05 -0.13965261E-05
  0.13702203E-05 -0.97644764E-06  0.48144955E-06 -0.27640533E-05  0.52531245E-06
 -0.67638080E-06 -0.15772066E-04 -0.74405777E-05  0.57979781E-05  0.78837825E-05
 -0.68631412E-05  0.52382047E-05  0.68301240E-05  0.26752308E-05 -0.20166451E-06
  0.73912727E-06  0.40251660E-05 -0.11805631E-05  0.14375906E-05  0.15638638E-05
  0.11341235E-05  0.10578792E-06 -0.51960495E-06 -0.85098146E-06  0.30985451E-05
 -0.18068184E-05 -0.16197072E-04  0.80618151E-05  0.15645466E-04  0.25243246E-05
  0.64634783E-05  0.28608922E-04 -0.94322913E-06  0.15641973E-05  0.46341763E-07
  0.18621703E-05 -0.23840774E-05 -0.42149188E-06 -0.17170988E-05 -0.21743833E-05
 -0.15591804E-05  0.69310420E-05  0.49140268E-05 -0.44275975E-04  0.11305809E-07
 -0.38767966E-05  0.88992683E-05  0.80305566E-05  0.14504726E-04 -0.10334925E-04
  0.31198671E-04  0.45038232E-06 -0.19146534E-05 -0.26285727E-06  0.27966980E-05
  0.66523658E-06 -0.15358566E-06  0.63698401E-05 -0.20087062E-06 -0.12302644E-04
  0.37793346E-04 -0.55982084E-04 -0.58836466E-04 -0.37155560E-04  0.95096122E-04
 -0.28769708E-05  0.20538102E-04 -0.69421499E-04 -0.11708799E-05  0.37260699E-05
  0.74200011E-06  0.19524211E-05 -0.41884686E-05  0.70221387E-06  0.48039229E-06
 -0.10479696E-05  0.11772891E-05 -0.18990312E-05  0.65490730E-06 -0.85973145E-06
 -0.19036368E-05 -0.14313264E-05 -0.89216147E-06  0.64375800E-08 -0.56646622E-06
 -0.52286880E-06 -0.12329889E-06  0.32519773E-06 -0.14551069E-05 -0.26627791E-06
 -0.67306900E-06 -0.51866773E-06 -0.13288065E-06  0.32659957E-07  0.15552549E-05
  0.11561218E-05 -0.94027797E-06  0.70668430E-07  0.46898850E-06  0.27287440E-05
  0.28116037E-06  0.34562445E-06  0.20665299E-06 -0.15160414E-06 -0.18217695E-05
  0.33564510E-06  0.16223434E-05 -0.10535679E-05  0.15332070E-05 -0.85115027E-06
  0.40256160E-06 -0.10103794E-05 -0.99907685E-06  0.59067997E-05 -0.14255466E-04
  0.13471370E-04 -0.36679545E-04  0.67252182E-05 -0.49852179E-04  0.43041753E-05
  0.22082339E-04 -0.86728996E-05 -0.80601688E-06 -0.63083397E-06 -0.29146427E-06
  0.17904876E-05 -0.15920633E-05 -0.74923335E-06  0.26594226E-06 -0.16290059E-06
  0.10016856E-05 -0.68625118E-05 -0.27654458E-05  0.17092202E-04  0.54185982E-05
  0.25632447E-05 -0.88764404E-05  0.12659539E-04 -0.56531074E-05  0.10557114E-04

 -0.26004018E-05 -0.19324885E-05  0.16820957E-05  0.11294461E-06 -0.34497025E-06
 -0.23551048E-05  0.10664418E-05  0.82547855E-06 -0.14024855E-06  0.23673658E-06
 -0.17437772E-06  0.40415349E-05 -0.35434125E-07  0.34760683E-06 -0.85772868E-06
  0.20100457E-05  0.37438801E-06 -0.15963068E-05  0.90842792E-05 -0.31663290E-04
  0.18274369E-05  0.31323898E-05 -0.53359578E-04  0.28534542E-04 -0.27684552E-04
  0.75925363E-05  0.41141648E-04  0.97373025E-06  0.22832237E-05  0.44139787E-05
  0.10079260E-05 -0.11508540E-05 -0.14871327E-05 -0.13150256E-05  0.44732027E-06
 -0.39473657E-05  0.85021545E-06  0.23168734E-05 -0.23251513E-04  0.98922416E-05
 -0.66900979E-05  0.18194574E-04  0.15546679E-04 -0.78026605E-06 -0.29036812E-04
 -0.18521968E-05 -0.27326759E-06 -0.16860735E-05 -0.17202779E-05 -0.10825094E-05
 -0.13555393E-05 -0.85811660E-06 -0.89302078E-06 -0.13616842E-05 -0.11200898E-05
 -0.10881808E-05 -0.21713518E-06  0.16295203E-06  0.13930976E-05 -0.13852561E-05
  0.13788041E-05  0.32180812E-06 -0.10053818E-05  0.30596615E-06 -0.10555267E-05
 -0.11179944E-05 -0.26240045E-06  0.70931398E-06 -0.19589521E-06 -0.67136970E-06
 -0.38622692E-07 -0.15711424E-05  0.10973448E-05 -0.63426008E-05  0.12923279E-05
  0.41385332E-06 -0.31017173E-05  0.70978701E-06  0.64538995E-06  0.32204688E-06
  0.80097600E-08  0.50265965E-07  0.54831761E-05  0.55588919E-06 -0.62714288E-07
  0.42771995E-05 -0.79444547E-06  0.22917261E-05  0.21822233E-05  0.55109823E-06
 -0.12461586E-04 -0.77645188E-05 -0.45351814E-05 -0.11199968E-05 -0.25687695E-04
  0.40483737E-04  0.10408858E-04 -0.34935174E-05 -0.24374461E-04 -0.12544160E-05
 -0.22588977E-05  0.21298274E-05 -0.58650138E-06  0.81008952E-05 -0.21825176E-05
  0.14794669E-05 -0.96606959E-06  0.10238962E-05 -0.52092273E-06 -0.42693505E-04
 -0.21527782E-04  0.20837239E-04 -0.20447378E-04 -0.14474665E-04 -0.11225735E-04
  0.15850235E-04 -0.71014293E-05 -0.12450801E-05  0.89007296E-06  0.41468583E-05
 -0.92107355E-06 -0.19533154E-05  0.47185088E-05  0.33522072E-05 -0.11498432E-05
  0.16098252E-05  0.14674099E-04 -0.53699460E-05 -0.90729614E-06  0.62384695E-05
 -0.15601205E-05  0.20761641E-05  0.27565870E-04 -0.22482298E-05  0.76799027E-05
  0.45038232E-06  0.49429567E-04 -0.35831058E-05  0.32330151E-05  0.27704187E-05
 -0.23339585E-05 -0.80743006E-06  0.58736212E-06  0.39254075E-06  0.23715510E-04
 -0.79556434E-05 -0.52819586E-04 -0.54751292E-05 -0.68416125E-04  0.38551791E-04
 -0.34633558E-04 -0.39531019E-04  0.54937901E-04  0.50082546E-05  0.22571808E-05
 -0.23513859E-05  0.73918549E-06 -0.59135143E-05  0.44251595E-05 -0.38735631E-05
  0.52074808E-06  0.52619756E-06  0.21699685E-05 -0.40990585E-05  0.56722192E-06
  0.79701683E-06  0.14519457E-05 -0.90327191E-06  0.73943750E-06  0.14866578E-05
 -0.18229570E-05  0.71261445E-06 -0.49296782E-05 -0.19778865E-05 -0.46056258E-06
  0.11859381E-05 -0.14750757E-06 -0.19726894E-05 -0.91706685E-06 -0.49770815E-06
 -0.45766624E-06 -0.98613358E-06 -0.15538658E-05  0.17005751E-05 -0.35219170E-06
  0.12306194E-05  0.11750067E-05  0.30902239E-06  0.31985222E-05  0.85814746E-06
 -0.49680218E-05  0.13525316E-05  0.92699031E-06 -0.22668359E-05 -0.18919624E-06
  0.24947380E-05 -0.48026542E-06 -0.70272653E-06 -0.50150707E-05 -0.80861633E-05
 -0.61156515E-04 -0.49310317E-05 -0.59263232E-04  0.47805029E-04  0.38408116E-04
  0.17878353E-04 -0.83346184E-04 -0.32841310E-06 -0.70000787E-06 -0.39573555E-06
  0.68164608E-06 -0.13669069E-06  0.41119191E-06  0.40447021E-06  0.91662119E-06
 -0.24728041E-06  0.16313821E-04 -0.20544113E-04 -0.15544993E-04 -0.10827990E-04
  0.33315506E-04  0.54375076E-05 -0.32685548E-05  0.24045741E-05 -0.41096092E-04

 -0.15636103E-06  0.10471524E-05 -0.87183704E-06  0.53098259E-06 -0.48273921E-06
  0.54781457E-07 -0.46070288E-06 -0.11346145E-05 -0.44389135E-06  0.26829144E-06
  0.22070302E-05 -0.11282915E-05 -0.17611797E-05  0.21413569E-05  0.51713884E-05
 -0.14707708E-05 -0.84387343E-06  0.36549294E-05  0.25315464E-04  0.35645671E-04
 -0.17117783E-05  0.42262668E-04 -0.95742883E-05 -0.17618279E-04 -0.50974359E-04
 -0.92637228E-05 -0.16961985E-04 -0.75830963E-06 -0.39021906E-06  0.12504262E-05
  0.13948598E-05  0.10019130E-05 -0.89978393E-05  0.44755390E-06 -0.10356519E-05
 -0.30298154E-06 -0.18248474E-04  0.59062041E-05 -0.14086822E-04 -0.16805153E-04
  0.31747428E-04 -0.73172605E-04 -0.80150206E-05 -0.36502856E-04 -0.36316401E-04
 -0.10396049E-06  0.13097479E-06  0.12561620E-05  0.98452040E-06  0.18628737E-05
 -0.17618741E-05  0.11545004E-05  0.16747001E-06  0.71741779E-06 -0.37482952E-06
  0.38938862E-07 -0.11004392E-05  0.16155055E-05 -0.83027532E-06  0.18340980E-05
 -0.38750796E-06  0.37055712E-05  0.17786232E-05 -0.20613971E-05 -0.13819285E-05
  0.15969453E-05 -0.20825721E-06 -0.56093615E-06  0.62895041E-06 -0.11736820E-06
 -0.61694359E-06  0.10424063E-05  0.65690420E-06  0.25760847E-05 -0.57596099E-05
  0.13183816E-05 -0.13951729E-06  0.22128483E-05 -0.38257788E-06 -0.13887928E-05
 -0.12287058E-05 -0.25943931E-05  0.33697685E-06 -0.42603277E-05 -0.26784735E-06
 -0.82559557E-06 -0.35750996E-05 -0.54755190E-06  0.72326129E-06  0.18310332E-05
 -0.11200220E-05 -0.17536271E-04  0.37830610E-04 -0.23739198E-04 -0.52493041E-05
  0.50616984E-04 -0.14829410E-05  0.65108072E-05  0.22391125E-04  0.36555392E-05
 -0.91288659E-06 -0.21175928E-05 -0.11556520E-05 -0.14371771E-05  0.42112580E-05
 -0.71838161E-06  0.72586706E-06  0.26601452E-05  0.14035087E-05 -0.12545870E-04
 -0.33713262E-04 -0.40961311E-05 -0.17177077E-04  0.14570308E-03 -0.43158977E-05
 -0.16114712E-04  0.36532858E-04  0.17282756E-05  0.79200581E-05  0.16429756E-05
 -0.35653724E-05  0.27321875E-05  0.82311441E-05 -0.25407521E-05  0.16057689E-05
  0.66554705E-05 -0.21199595E-04  0.61094355E-04 -0.40443133E-04 -0.28830795E-04
  0.41119528E-04 -0.28834619E-04  0.27602264E-04  0.24243846E-04  0.10962856E-04
 -0.19146534E-05 -0.35831058E-05  0.54545410E-04 -0.66005433E-05 -0.76631347E-05
  0.90307599E-05 -0.63827749E-06 -0.41396715E-05 -0.48718432E-05 -0.65084133E-04
 -0.83872248E-04  0.13898014E-03  0.49220902E-04  0.79042647E-04 -0.12483153E-03
 -0.38693837E-04  0.96604880E-04  0.82178139E-04 -0.12428523E-05 -0.26945996E-05
 -0.13278347E-05 -0.10980579E-05  0.22691553E-05 -0.45337576E-06  0.21339195E-05
  0.69719903E-07 -0.76216877E-06 -0.20701773E-05  0.89376434E-06 -0.58031324E-06
  0.20725688E-06  0.72230019E-06 -0.78134416E-06 -0.55766340E-06 -0.24284533E-05
  0.17158952E-05 -0.15867412E-05 -0.12851122E-06  0.31613505E-06 -0.48151358E-06
  0.16897727E-05  0.14521220E-05  0.18283104E-05  0.19912965E-06  0.73374166E-06
  0.64887685E-06 -0.14789567E-06  0.94055126E-06  0.16253964E-06 -0.55734048E-06
 -0.64446319E-06  0.94287683E-06  0.62249999E-06 -0.86413193E-07  0.28114717E-05
  0.33078815E-06  0.20816173E-05  0.98151043E-06 -0.55786874E-06  0.60991153E-06
  0.80894640E-06  0.75612119E-06  0.25084758E-05  0.10541603E-04  0.35389246E-05
  0.18729748E-04  0.84843279E-05 -0.11021789E-04  0.37302539E-04  0.81704945E-05
 -0.40690639E-04 -0.70421862E-05 -0.42198945E-06  0.33577559E-07 -0.23029382E-05
  0.60756526E-06 -0.71182426E-06  0.12440316E-05  0.36790338E-06  0.58000386E-06
 -0.70578434E-06  0.14652475E-04  0.38674268E-05  0.23350530E-04 -0.18180706E-06
 -0.27004006E-05 -0.13636547E-04  0.18054295E-04 -0.14219423E-04 -0.57294005E-05

 -0.14402690E-06 -0.14301105E-05  0.28162215E-06  0.96538776E-06 -0.78940693E-06
 -0.27618654E-06  0.67976356E-06  0.11481781E-05 -0.73716241E-06  0.16411009E-05
  0.28537575E-05  0.27100229E-05  0.55696682E-07 -0.16656917E-05  0.31671839E-06
  0.16612398E-05  0.14318157E-05  0.29066495E-06  0.20996880E-04  0.27233569E-04
  0.13258488E-04 -0.73598978E-05 -0.25624872E-06  0.29120131E-04  0.12818030E-04
 -0.74667669E-05 -0.14238736E-05 -0.11590894E-05  0.28664535E-06  0.79809552E-07
 -0.21939203E-05 -0.45363779E-06  0.15113432E-05 -0.18477298E-05 -0.27875176E-07
  0.41291971E-06  0.82123511E-05 -0.65172570E-05  0.20840599E-05 -0.15837514E-04
 -0.26115406E-04  0.24334317E-04 -0.40934535E-05  0.16230243E-05 -0.32988872E-05
 -0.16530286E-05  0.93661242E-07 -0.11619254E-05  0.36170754E-06  0.18574127E-05
 -0.25627026E-05  0.12695897E-05 -0.23524928E-06  0.78547573E-07 -0.12779411E-05
  0.10507717E-05  0.49576397E-06 -0.27074390E-05  0.90147219E-06  0.69556025E-06
 -0.11936071E-05 -0.19858019E-06  0.76781109E-07  0.13769843E-05  0.11427066E-05
 -0.43859216E-06  0.63458981E-06  0.77576771E-06  0.91834361E-06  0.11135742E-06
  0.12750788E-05 -0.21422815E-06  0.19660940E-05  0.76459578E-06 -0.19989347E-06
 -0.15161740E-06 -0.10199717E-05  0.40554150E-06 -0.71277392E-06  0.85004604E-06
  0.10719915E-05  0.48786710E-06 -0.62780765E-06 -0.10178899E-05 -0.19315470E-05
  0.13047652E-05  0.19563654E-05 -0.19663118E-06 -0.26184410E-05  0.60780165E-06
  0.30978824E-04  0.41715483E-06 -0.25907579E-04  0.21078474E-04  0.18524823E-04
 -0.19352715E-04 -0.24072777E-05 -0.26093719E-04  0.72173551E-05  0.29384718E-06
  0.27963698E-05  0.20140663E-06 -0.17340193E-07  0.17150695E-05  0.98073306E-06
  0.56942192E-06 -0.10512136E-06 -0.43316257E-06 -0.14535564E-04 -0.17245661E-05
  0.28064647E-04  0.16547329E-04  0.14823995E-04 -0.24707694E-04  0.10426561E-06
  0.23415124E-04  0.12981391E-04 -0.11436876E-05  0.18925987E-05  0.14239132E-05
 -0.59128920E-05  0.57299625E-05  0.11581021E-05  0.11519767E-05 -0.26541763E-05
  0.40779586E-05 -0.95025862E-05 -0.14301435E-04  0.74677427E-05  0.14258561E-04
 -0.10592175E-06  0.16013687E-04 -0.15754067E-05 -0.12805154E-04  0.12473222E-04
 -0.26285727E-06  0.32330151E-05 -0.66005433E-05  0.47452501E-04 -0.15044623E-04
 -0.22321567E-04 -0.22050175E-05  0.35225510E-05  0.12957383E-05  0.77760492E-04
  0.52905485E-04 -0.57562292E-04 -0.25345498E-04 -0.29168403E-04  0.42015928E-04
  0.34303465E-04 -0.92965521E-04 -0.10978236E-04  0.28841366E-06  0.72248338E-06
  0.90754294E-06 -0.35555315E-05  0.31790115E-05 -0.74437204E-06  0.14757480E-05
 -0.13624292E-05 -0.96000287E-06  0.92779389E-06 -0.19011049E-05 -0.14934807E-05
 -0.19787453E-05  0.11941777E-05  0.11528926E-05 -0.15706879E-05  0.18414504E-06
 -0.15950612E-05 -0.54885849E-07  0.91998654E-06 -0.16697431E-06  0.11301242E-05
 -0.18972340E-05  0.13205276E-05  0.87062535E-07  0.36619833E-06 -0.11715937E-05
 -0.38661575E-06 -0.35067968E-06 -0.71904846E-06  0.38197286E-06  0.22972769E-06
  0.11820969E-05 -0.21956503E-06  0.56224381E-06 -0.63013708E-06  0.53896676E-06
  0.21012964E-05 -0.14432177E-05  0.27845826E-07  0.19656457E-05 -0.14898664E-05
 -0.23086539E-05 -0.47516068E-07 -0.13988502E-05  0.67529723E-05 -0.39073102E-05
  0.17307919E-04  0.11985357E-04  0.10849887E-05 -0.28082738E-04 -0.94026782E-05
 -0.34535378E-04 -0.29036389E-04 -0.13994692E-05  0.72249334E-07  0.62013937E-06
 -0.12987805E-05  0.65803018E-06  0.64999919E-06  0.41636428E-06  0.63188544E-07
  0.93347635E-06 -0.22540459E-04  0.24593949E-05 -0.15643811E-04 -0.32910735E-04
  0.63961516E-05 -0.89632026E-05 -0.47094254E-07 -0.45494715E-05  0.62318586E-05

 -0.50717369E-06  0.20100922E-05  0.43648980E-06  0.95315213E-07 -0.17719501E-05
  0.88786141E-08  0.41298282E-06 -0.26843744E-06  0.48364795E-06 -0.19332053E-05
  0.59642280E-06 -0.19474528E-05 -0.10413681E-05  0.61723496E-05 -0.48902775E-05
  0.88887717E-06 -0.12282741E-05 -0.22210787E-05 -0.99854585E-05 -0.63382256E-05
  0.98750297E-05  0.33501368E-04 -0.78348674E-05 -0.31825913E-04 -0.31778924E-04
 -0.25034458E-05 -0.43036890E-04 -0.68205164E-06 -0.26110738E-05 -0.49824522E-06
  0.10772074E-05 -0.59411087E-05  0.44308234E-05  0.12378049E-05  0.10092956E-05
  0.17245049E-05  0.10758202E-04  0.12914874E-04  0.74145638E-05  0.14860094E-05
  0.13721727E-05  0.80110708E-05 -0.24666524E-04 -0.72260841E-05 -0.15404304E-04
  0.10962574E-05  0.35464829E-05 -0.12490928E-05  0.63871599E-07 -0.45729520E-05
  0.27794096E-05 -0.10534250E-05 -0.13679938E-05 -0.44637156E-06 -0.46265796E-06
 -0.39028637E-06 -0.10611951E-05  0.40060947E-06  0.27156902E-05  0.11079643E-05
 -0.63469184E-07 -0.10619004E-05 -0.21250799E-05  0.89958361E-07 -0.17555547E-05
 -0.38561014E-06  0.25077435E-05 -0.16440878E-05 -0.85150798E-06  0.13526318E-05
  0.14344038E-06  0.27390224E-06 -0.13031215E-06  0.14317818E-05  0.26981793E-06
 -0.89260755E-06  0.47724234E-05 -0.19592443E-05 -0.91851443E-09 -0.43293676E-06
  0.19421688E-07 -0.35349107E-05  0.78109518E-05  0.35792510E-05  0.23831220E-05
 -0.39959452E-05  0.17289992E-05  0.26616264E-05  0.10972335E-05 -0.31519168E-05
 -0.11744330E-04 -0.11207774E-04  0.48793090E-05 -0.30133951E-04 -0.22138188E-05
  0.42291060E-04  0.73663186E-05  0.16679360E-04 -0.27423042E-04  0.80529974E-06
 -0.44262423E-05 -0.14063021E-06  0.18234302E-05 -0.99014178E-05  0.34677399E-05
  0.21424670E-05 -0.47323271E-06  0.13087390E-05  0.99259165E-05 -0.14918846E-05
 -0.14780870E-04  0.19450510E-04 -0.11095946E-04  0.19584356E-04 -0.24768281E-04
 -0.89579262E-05 -0.34882819E-04 -0.25270376E-05 -0.39602421E-06 -0.36188867E-05
  0.11855437E-05  0.86119801E-05 -0.86666714E-05 -0.43760150E-07  0.20897388E-05
  0.10221361E-05 -0.61466261E-05 -0.30561562E-04  0.22283427E-04  0.21296126E-04
 -0.30779007E-04  0.21994865E-04  0.27248803E-05 -0.48705170E-05  0.23824814E-04
  0.27966980E-05  0.27704187E-05 -0.76631347E-05 -0.15044623E-04  0.73076658E-04
 -0.19004359E-04  0.16861932E-05  0.23641342E-05  0.66745532E-06  0.15870589E-04
  0.25184706E-04 -0.59152147E-04 -0.21188220E-04 -0.59098592E-04  0.41051758E-04
  0.31520559E-04 -0.25683356E-04 -0.10944291E-03  0.46115329E-05  0.42475449E-05
 -0.20489022E-05  0.31437227E-05 -0.69283210E-05  0.43900857E-05 -0.90965260E-05
  0.28971494E-05  0.49101768E-05 -0.10266459E-05  0.18826222E-05 -0.11119277E-05
  0.18936777E-05 -0.85422994E-05  0.11118881E-05 -0.34852390E-06 -0.84090770E-06
  0.70586793E-06 -0.11169849E-06  0.33977465E-06  0.14932363E-05  0.48552419E-06
  0.16125255E-05 -0.12234960E-05 -0.19195123E-05  0.23085943E-06 -0.53363591E-06
 -0.37826401E-06  0.15449989E-06  0.43949580E-06  0.20401130E-06 -0.47083605E-05
  0.63634248E-06  0.89000097E-06  0.50083886E-06 -0.16539728E-06 -0.10733514E-05
 -0.60937329E-05  0.30505221E-05  0.14047117E-05 -0.64372652E-05  0.28413272E-05
 -0.20353875E-05  0.60896066E-07 -0.28711978E-06 -0.33986753E-05  0.43858935E-05
 -0.72165834E-04 -0.58386657E-05 -0.53865626E-04  0.64173343E-04 -0.10995109E-04
 -0.10060570E-04  0.12303082E-04 -0.12475738E-05 -0.43190257E-06 -0.43556216E-06
 -0.10116349E-05 -0.12393440E-05  0.15395571E-05 -0.23233608E-05 -0.73563334E-06
  0.24032540E-06  0.13127797E-04 -0.35752844E-04  0.22393147E-04  0.35346324E-04
 -0.33330136E-04  0.12533901E-04 -0.11590532E-04 -0.15745706E-04 -0.11502048E-04

  0.45075014E-06  0.16131191E-05 -0.18633022E-05 -0.36016312E-06  0.24957714E-05
  0.77280024E-06 -0.88590121E-06 -0.15191722E-05  0.45462991E-06  0.11739974E-05
  0.22857799E-06  0.14031376E-05  0.64099292E-06 -0.14295958E-05  0.58364783E-05
 -0.12379819E-05  0.11870445E-06  0.13912869E-05  0.42458770E-05  0.23949330E-04
  0.37193870E-05  0.12821154E-03 -0.74832188E-04 -0.27611604E-04 -0.29026026E-04
  0.94753378E-05  0.17650559E-04  0.16279273E-05  0.18117006E-05  0.46105865E-06
  0.82089840E-06  0.35580621E-05 -0.48163785E-05  0.81488965E-06 -0.41155199E-06
 -0.26313615E-05  0.19715007E-05  0.16535235E-04 -0.60320750E-05  0.77956313E-05
  0.53452492E-04 -0.12997033E-04  0.32001183E-05  0.13340193E-04  0.25983238E-04
 -0.98095257E-06 -0.11826913E-05  0.30090097E-06 -0.17396447E-05  0.23526998E-07
  0.40907348E-05 -0.55027143E-06  0.48177679E-06 -0.13708954E-06  0.99918296E-06
  0.77474390E-08  0.65909598E-07  0.33503467E-05  0.70243444E-06 -0.23709337E-05
  0.80575660E-06  0.26017623E-05 -0.46511374E-07 -0.51038545E-07 -0.20327214E-06
  0.62167340E-06 -0.23478631E-06  0.54545751E-06  0.26777058E-06 -0.55470999E-07
 -0.18911343E-05 -0.14371701E-05 -0.51605677E-06  0.57760503E-06  0.22040531E-05
  0.22488720E-05 -0.28856077E-05  0.32820276E-05  0.25332396E-06 -0.94324945E-06
 -0.10025991E-05  0.24822080E-05 -0.18870234E-06 -0.56764994E-06  0.10503061E-05
  0.10177372E-05 -0.98102777E-05 -0.47840274E-06 -0.24528586E-06  0.14154293E-05
 -0.31759880E-04 -0.73475093E-05 -0.32411598E-05 -0.19920353E-05  0.25884016E-04
 -0.47798031E-04 -0.11497406E-05  0.26284397E-04  0.28448213E-05 -0.12604266E-05
 -0.41675838E-05 -0.17604613E-05  0.11609853E-06  0.54416469E-05 -0.57321027E-05
 -0.17696947E-05 -0.79885381E-06  0.70277918E-06  0.20012945E-04 -0.16218944E-04
 -0.71585617E-04  0.50149857E-04 -0.65016224E-05 -0.17374484E-04  0.10896496E-04
 -0.31654491E-04 -0.33632435E-04  0.11771790E-05 -0.43083589E-05 -0.25998651E-05
  0.53767155E-05 -0.95676818E-05  0.32448396E-05  0.99110456E-06  0.10181484E-05
 -0.70849999E-05  0.11351646E-04 -0.79674082E-05 -0.22100677E-04  0.27824767E-04
 -0.60759868E-04 -0.89296113E-06  0.10474711E-04 -0.13893940E-04 -0.37098218E-04
  0.66523658E-06 -0.23339585E-05  0.90307599E-05 -0.22321567E-04 -0.19004359E-04
  0.68588953E-04 -0.64303586E-06 -0.10212795E-05  0.11359725E-06 -0.90146339E-04
 -0.71613977E-04  0.79871299E-04  0.70827710E-05  0.26225636E-04  0.26062341E-04
 -0.68747443E-04  0.74894581E-04  0.74263900E-04 -0.19076997E-05 -0.45195657E-05
 -0.20534540E-05  0.34764772E-06  0.42266032E-05 -0.31280522E-05  0.38167155E-05
 -0.24001946E-05 -0.28160942E-06 -0.85465209E-06  0.19300650E-06  0.18563706E-05
  0.20307101E-05  0.28588651E-05 -0.20286641E-05  0.14311637E-05  0.99098545E-07
  0.19808539E-05  0.27619086E-06 -0.82128268E-06 -0.58228002E-06  0.59720147E-06
  0.31536052E-05 -0.30263010E-05  0.56257686E-06  0.96063119E-07  0.41376942E-05
  0.43031717E-06  0.14085665E-05  0.16736859E-05  0.14718496E-05  0.13432338E-05
 -0.17164816E-06 -0.51001171E-06  0.42633408E-06  0.47462512E-06  0.15117843E-05
  0.19243440E-05  0.73629187E-06 -0.15806094E-05  0.61159092E-05  0.73605552E-06
  0.31070231E-05  0.36040197E-06  0.25494707E-05 -0.93399293E-05  0.18327570E-04
  0.49797249E-04  0.15377688E-04  0.45661786E-04 -0.40947399E-04  0.79919288E-05
  0.15055031E-04 -0.12933717E-05  0.19570416E-05  0.95050631E-06  0.90666598E-06
  0.18521902E-05  0.70095941E-06 -0.51118342E-07  0.89250903E-06  0.18248390E-05
 -0.17086983E-05  0.26221634E-04  0.20973837E-04  0.27216642E-04  0.66496607E-05
  0.15667874E-04  0.18669874E-04  0.95794412E-05  0.11952216E-05 -0.21958231E-04

 -0.75104001E-06 -0.96144897E-06 -0.13841338E-06 -0.33345954E-06  0.84656034E-07
 -0.90216009E-06 -0.18451587E-05 -0.36399027E-06 -0.52281924E-06 -0.65272527E-06
  0.10730471E-05 -0.44921850E-06 -0.39858730E-06 -0.24100396E-06  0.12195568E-05
  0.13431430E-05 -0.56925860E-06 -0.40507087E-06 -0.10547696E-04  0.30376893E-05
  0.51771769E-05  0.40753707E-04 -0.10862505E-04 -0.66020229E-05 -0.28611240E-04
  0.11431489E-04  0.26294061E-06  0.53271775E-06  0.67922078E-06  0.11836825E-05
  0.98765446E-06  0.15278946E-05 -0.86720906E-06 -0.11297473E-05 -0.66236677E-06
  0.72933198E-07 -0.48450718E-05 -0.41015397E-05 -0.17276702E-04  0.16749290E-04
  0.20047604E-04 -0.91134324E-05  0.14508948E-04  0.31794677E-05  0.52458971E-05
  0.21797136E-05  0.76802826E-06  0.46338944E-06  0.80016461E-06  0.55084497E-06
 -0.79537482E-06 -0.10024576E-05 -0.64066167E-06  0.83365448E-06 -0.24148461E-06
 -0.78159178E-06  0.75960810E-06 -0.65779697E-07 -0.85336483E-07 -0.13612793E-05
 -0.95893654E-06  0.70656186E-06  0.37071913E-06  0.51169251E-06 -0.11675596E-05
  0.44226835E-06 -0.71385184E-06 -0.52907549E-06  0.12824233E-05 -0.21474507E-06
 -0.45699050E-06 -0.38380675E-06 -0.19935978E-05  0.23306920E-06  0.51424743E-06
 -0.26965313E-06  0.13804295E-05  0.31138884E-06 -0.19566482E-05  0.67320578E-06
  0.19201856E-05  0.14170768E-05 -0.21041118E-05 -0.58790858E-06 -0.11970242E-05
  0.48630295E-05 -0.19881903E-05  0.97763134E-06 -0.76642740E-06 -0.12305211E-05
 -0.69012739E-05 -0.70604787E-05 -0.17088196E-06  0.11595170E-04 -0.75184472E-06
 -0.23287619E-04  0.14477036E-04 -0.30169223E-05 -0.14471593E-04 -0.25172602E-05
 -0.15699742E-05 -0.10904120E-05 -0.92480025E-06 -0.32256074E-05  0.37296019E-06
 -0.10199496E-05 -0.48191603E-06 -0.85642923E-07 -0.13475041E-04 -0.88826459E-05
 -0.43365028E-05  0.30746599E-04  0.20622606E-05 -0.64194667E-06  0.29190230E-05
  0.27538151E-04 -0.65319436E-05  0.23002745E-05 -0.36486988E-06  0.49265458E-06
 -0.19067532E-06  0.17836132E-05 -0.21723743E-05 -0.17029078E-06  0.22505556E-05
 -0.17677151E-05 -0.17090619E-04 -0.17729584E-04 -0.13524427E-05 -0.25043437E-05
  0.17974444E-05  0.18733118E-04 -0.31250401E-04  0.12461124E-04 -0.13437424E-05
 -0.15358566E-06 -0.80743006E-06 -0.63827749E-06 -0.22050175E-05  0.16861932E-05
 -0.64303586E-06  0.27784196E-04 -0.17520101E-05  0.57557231E-06  0.14053381E-04
  0.23449460E-04  0.26259337E-04  0.13330617E-04  0.21514628E-04 -0.39317398E-04
 -0.66755722E-05  0.64842885E-06 -0.34105335E-04  0.45031995E-06  0.39642577E-05
 -0.21686030E-05  0.22537488E-05 -0.61739738E-05  0.40265617E-05  0.67340700E-06
  0.14092418E-05  0.21500233E-05 -0.62206348E-06  0.16583940E-05 -0.20397543E-05
  0.13029546E-05 -0.16777622E-05  0.87461431E-07 -0.16459841E-05 -0.70219035E-07
 -0.20453093E-05  0.62883437E-06 -0.60026505E-06  0.85133540E-06 -0.29634093E-06
  0.16942567E-05 -0.43061866E-06 -0.60452507E-06  0.63142217E-07 -0.45034088E-06
 -0.75684917E-06 -0.15792001E-05  0.94897170E-06 -0.64239332E-06  0.94562430E-06
  0.22373874E-06 -0.12521076E-05 -0.52360347E-06 -0.49952359E-06  0.12120733E-05
  0.12482559E-05  0.23849823E-05 -0.69257107E-06  0.10216061E-05  0.10623561E-06
  0.72500256E-07 -0.56625239E-06  0.10735092E-05 -0.53143600E-05  0.14976950E-04
  0.62152898E-05 -0.70002741E-05  0.16341422E-04  0.85637832E-04  0.80787172E-06
 -0.77758746E-05  0.19917860E-04 -0.18436300E-06 -0.10746470E-05  0.35878401E-06
  0.29682169E-06  0.14689661E-05 -0.66698502E-06 -0.47194595E-06  0.24428237E-06
 -0.10740770E-05 -0.55160727E-05 -0.13558447E-04 -0.19453526E-05 -0.11239661E-04
  0.12978034E-04 -0.12559930E-04  0.54831394E-05 -0.91615964E-05  0.20493765E-05

 -0.15877160E-05 -0.10844132E-05 -0.41237308E-06  0.97861038E-06 -0.13196941E-05
 -0.11581238E-05 -0.53697320E-06 -0.56750515E-06 -0.36696779E-06  0.30709320E-06
  0.32117341E-06  0.35313376E-05  0.22398513E-06 -0.40695418E-06 -0.38428902E-06
  0.77367674E-06  0.11580648E-05 -0.15084203E-05 -0.57336481E-05  0.71505905E-05
 -0.95174303E-05 -0.53248788E-04  0.70331866E-05  0.10490211E-04  0.17178305E-05
  0.67285188E-05 -0.16723004E-04 -0.36255251E-07 -0.12695750E-06  0.13159775E-05
  0.52831297E-07 -0.12895282E-05  0.18818705E-05 -0.42115335E-07 -0.22749266E-05
  0.36783856E-06  0.62528829E-05  0.51747775E-05  0.17794092E-04  0.16386627E-04
 -0.24045606E-04  0.64161401E-06 -0.90536627E-06 -0.11792614E-04 -0.16312862E-04
 -0.74722309E-06 -0.12868099E-05 -0.16635489E-05 -0.13113552E-05  0.30892789E-06
  0.20220725E-06  0.34697573E-06 -0.14964757E-05 -0.69004925E-06 -0.37810934E-06
 -0.49289762E-06  0.96186501E-06 -0.21793086E-06 -0.34317733E-06  0.19355891E-05
 -0.63561795E-06 -0.44881665E-06 -0.72027019E-07  0.17161185E-05  0.90980837E-06
  0.13569780E-05 -0.25882976E-06  0.32919067E-06 -0.14675001E-05 -0.64737960E-06
 -0.46995099E-06  0.16169062E-06  0.11975627E-05 -0.82647790E-06  0.15820082E-05
  0.32737445E-06 -0.22512856E-05 -0.15620859E-05 -0.72487238E-07  0.42099071E-06
 -0.25385040E-07 -0.12556123E-05 -0.60724487E-06  0.42681831E-06 -0.61510702E-06
 -0.81029473E-06  0.36027255E-06 -0.21798202E-06 -0.42218437E-05  0.46826533E-06
  0.80298081E-05  0.41521644E-05 -0.21783837E-04 -0.85665694E-05  0.40096093E-05
  0.48805538E-04  0.93214110E-05 -0.17522729E-04  0.27691318E-05 -0.45017806E-06
  0.18220325E-05  0.19297722E-05 -0.67636144E-06  0.18427612E-05 -0.15104068E-05
  0.96487564E-06  0.11487787E-05 -0.21038469E-05 -0.88572319E-05  0.71532051E-05
  0.17507225E-04 -0.37236381E-04  0.18411164E-04 -0.29269139E-04  0.62917990E-05
  0.43403143E-04  0.11703853E-04 -0.20112889E-05 -0.41136477E-06  0.30943699E-07
 -0.28687790E-05  0.17824805E-05  0.10258751E-05  0.41167722E-05 -0.13133577E-05
 -0.11277810E-05  0.36754988E-05 -0.33536853E-04 -0.63373472E-05  0.54883520E-05
 -0.32822229E-04  0.99101212E-05  0.10242122E-04 -0.50091452E-05  0.16598106E-04
  0.63698401E-05  0.58736212E-06 -0.41396715E-05  0.35225510E-05  0.23641342E-05
 -0.10212795E-05 -0.17520101E-05  0.30005875E-04 -0.31822951E-06  0.22379242E-05
  0.65778517E-04 -0.10121325E-03 -0.87606751E-04 -0.33680074E-04  0.73936285E-04
 -0.11581738E-04  0.15753965E-04 -0.83611886E-04 -0.11065590E-06 -0.12790688E-05
  0.13493812E-05 -0.90075326E-06  0.27981886E-05 -0.36401787E-05  0.11272946E-06
 -0.32711354E-05  0.21910642E-05 -0.11084756E-06 -0.10491241E-05 -0.12050431E-05
 -0.12577495E-05 -0.10012168E-06 -0.80985068E-07 -0.86714612E-06 -0.38599342E-06
  0.11020687E-05  0.99462882E-06 -0.55128826E-06  0.21269020E-06  0.13146690E-05
 -0.12697722E-05  0.41566936E-07  0.51306731E-06 -0.36884137E-06  0.70393716E-06
 -0.11705784E-05  0.61441194E-06  0.35357205E-07  0.11906787E-05  0.84518253E-07
  0.52866941E-06 -0.84583214E-06  0.21559213E-06 -0.10716959E-05 -0.62827922E-06
 -0.19034326E-05  0.48661631E-06  0.32700325E-06 -0.19483534E-06 -0.78570588E-06
 -0.11689915E-05 -0.96979834E-06 -0.22174998E-05  0.77924016E-05 -0.19746842E-04
 -0.13994705E-04 -0.15260660E-04  0.14205423E-04 -0.64773521E-04 -0.96513870E-05
  0.13905207E-04  0.15961742E-06 -0.56354149E-06  0.28249905E-06 -0.40288394E-06
  0.46093087E-06 -0.20178428E-05  0.56296213E-06 -0.65537659E-06 -0.72332753E-06
  0.89488980E-06  0.65147100E-07 -0.48351396E-05  0.13282286E-04 -0.46540042E-05
 -0.54754285E-05  0.38297438E-05  0.90525781E-06 -0.10040508E-04  0.16715500E-04

  0.66700201E-06 -0.67697499E-06 -0.35660502E-05 -0.41484345E-06  0.37252051E-06
 -0.21710133E-05 -0.31492234E-06  0.11613222E-06  0.93517620E-07 -0.50374118E-06
 -0.14000180E-05 -0.21115649E-05  0.48032845E-06 -0.43892233E-05 -0.18208414E-07
 -0.21048168E-06  0.55360608E-06  0.10526481E-05 -0.28044615E-04 -0.32175711E-04
 -0.81685251E-05 -0.83640835E-06 -0.31125886E-07  0.11345020E-04  0.21371523E-04
  0.17146226E-04 -0.23632991E-04 -0.12478848E-05 -0.33030600E-05 -0.23737957E-05
 -0.15780153E-05  0.92999750E-06  0.56751929E-06  0.19119731E-06  0.89926758E-06
 -0.38632857E-05 -0.74777527E-05 -0.87641126E-05 -0.86852268E-05 -0.16220339E-04
 -0.50120897E-05 -0.15833523E-04 -0.17313875E-04 -0.66083750E-05 -0.49002349E-04
 -0.53568360E-07 -0.33015368E-05  0.16893256E-05  0.10015751E-05 -0.15964567E-05
 -0.31021645E-05  0.41933582E-06 -0.21935685E-05  0.18588392E-05  0.10805098E-05
  0.21518641E-05 -0.23695824E-05 -0.57815036E-06 -0.70204508E-06  0.14939997E-05
  0.40037597E-06 -0.18088002E-05 -0.14402213E-05  0.15268877E-05  0.15659510E-06
  0.15325992E-06  0.99118991E-06 -0.62964995E-06 -0.14378267E-05 -0.17169650E-06
  0.26942372E-06  0.54121560E-06 -0.22790281E-06  0.12018166E-05 -0.34121446E-05
 -0.21047548E-05  0.24848838E-05  0.31472270E-05  0.33656969E-06 -0.86818494E-06
 -0.39461837E-05 -0.13748825E-05 -0.27338343E-05  0.13547609E-05  0.67705030E-06
 -0.21472692E-05 -0.11140418E-05  0.14344426E-05  0.10417110E-05 -0.10889640E-05
  0.41290582E-05 -0.19210096E-04 -0.91752484E-06  0.10919477E-05 -0.41934013E-06
 -0.10605156E-04 -0.10077335E-04 -0.13194723E-04  0.32244321E-05  0.10688029E-06
  0.27988068E-06 -0.19034519E-05  0.10280726E-06 -0.60767361E-05  0.99968162E-06
 -0.14133707E-05 -0.22286897E-05 -0.21637939E-05 -0.23598659E-04 -0.46638986E-05
  0.27859970E-04 -0.27562209E-04  0.16420402E-04  0.36637659E-04 -0.14057771E-04
 -0.49983000E-05 -0.18620539E-04 -0.24231679E-05 -0.51483553E-05 -0.39830190E-05
  0.36130807E-05  0.20958104E-05 -0.14371033E-04 -0.64232455E-06 -0.55594382E-06
 -0.11754558E-04 -0.17318594E-04 -0.38190688E-04 -0.19080807E-04  0.38396651E-04
 -0.44752160E-04  0.85754054E-04 -0.38173039E-04 -0.15778060E-04 -0.85150124E-05
 -0.20087062E-06  0.39254075E-06 -0.48718432E-05  0.12957383E-05  0.66745532E-06
  0.11359725E-06  0.57557231E-06 -0.31822951E-06  0.47487838E-04  0.34952083E-04
 -0.51302287E-04 -0.47554721E-04 -0.26769212E-05 -0.15885468E-03  0.10585576E-03
 -0.37605562E-04 -0.54712551E-04  0.38591921E-04 -0.13527524E-05 -0.38377031E-06
 -0.11197460E-05 -0.12076097E-05  0.72590735E-05 -0.26624607E-05  0.25864416E-05
  0.39883579E-05  0.36509243E-05 -0.14858714E-05  0.16744198E-05  0.39116594E-06
  0.63646669E-06 -0.96139432E-06 -0.26308999E-05 -0.64619250E-06  0.14324379E-05
 -0.42238118E-05  0.14105138E-06 -0.50218025E-08 -0.73508481E-06  0.72669821E-06
 -0.14981147E-05 -0.78726588E-06 -0.83499352E-08  0.36238827E-06 -0.21370430E-05
  0.10931611E-05  0.16600752E-06 -0.81936766E-06  0.31425025E-06 -0.10907064E-05
 -0.19859916E-05 -0.13188423E-05  0.57183248E-06  0.83704560E-06  0.32475449E-05
 -0.21277451E-05  0.40573045E-06  0.48605983E-06 -0.24525145E-05  0.12352056E-05
  0.69292415E-06  0.18380001E-06 -0.98201698E-06 -0.16934881E-04  0.28733879E-05
 -0.69602134E-05 -0.25376778E-04  0.24111579E-05 -0.32204420E-04  0.43471487E-05
  0.33477525E-04  0.10796754E-04  0.42933500E-06  0.14216767E-05  0.11540700E-05
 -0.44084046E-06 -0.42031599E-06 -0.15188581E-06 -0.13677440E-05 -0.42284382E-06
 -0.29292927E-06 -0.19306616E-04 -0.42424961E-05 -0.26815122E-04 -0.43183871E-04
 -0.35015047E-05  0.31214553E-04  0.29217657E-04 -0.73745555E-05  0.23854093E-04

 -0.17195799E-04 -0.17476180E-04  0.88873057E-05 -0.68455873E-05 -0.83973776E-05
 -0.35551739E-05  0.73618134E-05  0.11728830E-04 -0.17131252E-05 -0.10488068E-04
  0.14454704E-04  0.43187856E-05 -0.10300245E-04 -0.32152424E-05  0.13352940E-04
  0.12752188E-04  0.41926437E-05  0.27358911E-05  0.12649802E-03  0.18550409E-03
  0.90313947E-04 -0.18714306E-03  0.16443012E-03  0.13654088E-03  0.54425300E-04
  0.90808504E-04 -0.16810255E-04 -0.21760824E-05 -0.26957175E-05  0.17984996E-04
 -0.45394780E-05 -0.74272225E-05 -0.78844408E-05 -0.12454251E-04 -0.30138617E-05
 -0.80546479E-05  0.11117813E-03 -0.95482155E-04 -0.31178857E-04 -0.10775531E-03
 -0.14896482E-03 -0.49898048E-04  0.68288433E-04 -0.14520267E-03 -0.23190348E-03
  0.83101071E-05  0.11912598E-04 -0.77214358E-05  0.40188254E-05  0.18459477E-05
 -0.13320835E-04  0.34810470E-05 -0.67050509E-05  0.45847358E-05 -0.91236687E-05
  0.42578243E-05 -0.35492767E-05 -0.54939541E-05  0.75893778E-05 -0.15515534E-04
 -0.53765951E-06 -0.78061383E-06 -0.37319654E-05 -0.22771903E-05 -0.55838685E-05
 -0.35436619E-05  0.14543465E-04 -0.68774750E-06  0.46799460E-05 -0.47384769E-05
  0.51392652E-05 -0.17886484E-05 -0.19809154E-06  0.15533354E-04  0.37192219E-05
  0.25359682E-05 -0.47590646E-05  0.99019964E-05 -0.17118046E-05 -0.18605580E-05
  0.65304323E-05 -0.15005005E-04 -0.11395132E-04  0.73191464E-05 -0.22754990E-04
  0.14285138E-04  0.76034549E-05  0.17557561E-04 -0.45014693E-05 -0.31013357E-05
 -0.34213194E-04  0.88162766E-04 -0.22316221E-03 -0.16145889E-03  0.84098255E-04
  0.11075189E-03  0.75040228E-04 -0.22904574E-03 -0.20262175E-04  0.26545922E-04
  0.35516393E-04  0.12401467E-04  0.17355681E-05 -0.68571360E-05 -0.30105623E-05
 -0.39393495E-05 -0.54351679E-05 -0.22482640E-04  0.65167935E-05  0.18831881E-03
  0.51167409E-03 -0.71730520E-03  0.15327018E-03  0.25631180E-04 -0.21541608E-04
  0.71608103E-04  0.79730582E-04 -0.10630546E-04 -0.16322135E-04 -0.92972947E-05
  0.86812366E-05  0.19673088E-04 -0.31990950E-04  0.97708048E-05 -0.12529105E-04
  0.31839171E-05  0.12091063E-03 -0.29057363E-03  0.14604716E-03  0.99896132E-04
 -0.12809807E-03  0.18923615E-03  0.70113421E-04  0.16558700E-05  0.17986082E-03
 -0.12302644E-04  0.23715510E-04 -0.65084133E-04  0.77760492E-04  0.15870589E-04
 -0.90146339E-04  0.14053381E-04  0.22379242E-05  0.34952083E-04  0.15576460E-02
  0.33154012E-03 -0.39013131E-03 -0.16244180E-05 -0.30995236E-03  0.14737966E-03
  0.50709150E-04 -0.23332364E-03  0.16489173E-04  0.96698692E-05  0.13199001E-04
 -0.19331343E-06 -0.38575132E-04  0.11118314E-04  0.10951120E-04 -0.54038179E-06
  0.75135713E-05  0.10371563E-05 -0.46304036E-05 -0.11473164E-04 -0.19407589E-04
  0.48028210E-06 -0.29928930E-05 -0.41395015E-05 -0.47954158E-05  0.50777494E-05
 -0.78786321E-05 -0.72795216E-05  0.36273804E-05  0.58029912E-07 -0.34776371E-05
 -0.74193171E-05  0.42364083E-05  0.22747164E-05 -0.60954352E-05 -0.11804347E-04
 -0.18740785E-04  0.12244260E-05 -0.40852794E-05 -0.62550944E-05 -0.52750291E-05
  0.55061727E-05 -0.58456492E-05  0.65452829E-05  0.83802416E-05  0.17593475E-04
  0.10236608E-04  0.26063519E-06 -0.50260935E-05 -0.55880465E-05  0.10951129E-05
 -0.45519247E-06  0.10552389E-06 -0.56267843E-05 -0.55047437E-07  0.15547065E-04
  0.16599811E-03 -0.14402826E-04 -0.15073513E-03  0.21305349E-03 -0.78394935E-04
 -0.21533666E-03 -0.11708074E-03 -0.12109170E-04 -0.91621882E-06  0.58092562E-05
  0.94494321E-06 -0.21401042E-05 -0.33886095E-05 -0.37326984E-06 -0.51085952E-05
 -0.46949431E-06  0.10898931E-03 -0.39834631E-04 -0.25298563E-03 -0.42575762E-04
 -0.59025444E-05  0.11886520E-04 -0.91878828E-04  0.24322391E-04  0.26569490E-04

 -0.19543002E-04 -0.73417440E-05 -0.92689166E-05  0.18357606E-05  0.80501801E-05
  0.18023271E-05 -0.49046769E-05 -0.67659931E-05  0.65069406E-06  0.44242507E-05
  0.73484864E-05  0.14620779E-04 -0.68622805E-05  0.11836232E-05 -0.42932675E-06
  0.22862974E-04  0.13252002E-06 -0.30317796E-05 -0.88101551E-04 -0.92394684E-04
  0.85115093E-04 -0.32226471E-03 -0.41545718E-05  0.16088678E-03  0.19553257E-03
  0.23427454E-03 -0.38756167E-04 -0.44170962E-05  0.93452252E-05  0.56561908E-06
  0.44226538E-05 -0.34609503E-04  0.31336765E-04 -0.18815814E-04 -0.98554659E-05
 -0.10707431E-04  0.72058845E-04  0.74473044E-04 -0.73245415E-04  0.11145989E-03
 -0.67439478E-03  0.25118974E-03 -0.62619473E-04  0.10516133E-03  0.59445654E-05
  0.10873774E-05  0.32978678E-05 -0.11326358E-04  0.85510961E-06  0.15088087E-04
  0.89358232E-06  0.10741840E-04 -0.52040144E-05  0.56884534E-05  0.11671071E-04
  0.27740105E-05  0.14913708E-04 -0.17303833E-04  0.11301624E-04 -0.20094910E-06
 -0.49134223E-05 -0.20291731E-05 -0.16687899E-05  0.11472910E-04  0.89203719E-05
  0.17480270E-05 -0.16677305E-04  0.13968547E-04  0.98496958E-05 -0.11903938E-04
  0.95618289E-05 -0.88535708E-05  0.44156194E-05  0.19412397E-05  0.80529442E-05
  0.70969665E-05 -0.20740766E-04 -0.18710143E-04 -0.59051024E-05 -0.11134569E-05
  0.94024502E-05 -0.13140966E-05  0.81469820E-05  0.44625006E-05  0.30378602E-06
  0.45215136E-05  0.74794869E-05  0.12344690E-04 -0.21916343E-04 -0.35467681E-05
  0.73025090E-04  0.75068601E-04 -0.14338347E-03  0.50095818E-04  0.18941892E-03
 -0.87616207E-04 -0.14733693E-04 -0.94665806E-04 -0.49447355E-04  0.11818527E-04
  0.27358555E-04  0.85664880E-05 -0.54609401E-05  0.22109702E-04 -0.41171477E-06
 -0.70210083E-05  0.50046062E-05 -0.13894584E-04 -0.71919132E-04 -0.96864622E-04
  0.64533069E-05  0.94042123E-04  0.33472191E-03 -0.48407132E-03  0.33549595E-03
  0.43125087E-03  0.16067986E-03 -0.36631099E-05  0.31187906E-07 -0.76225723E-05
 -0.39872522E-04  0.61913373E-04  0.57948557E-05  0.47153244E-05 -0.16697553E-04
  0.11722114E-04 -0.12560176E-03 -0.82713094E-04 -0.59146351E-04  0.80470317E-04
  0.35633790E-03  0.10349773E-03 -0.12409822E-03  0.16441110E-05 -0.27252856E-04
  0.37793346E-04 -0.79556434E-05 -0.83872248E-04  0.52905485E-04  0.25184706E-04
 -0.71613977E-04  0.23449460E-04  0.65778517E-04 -0.51302287E-04  0.33154012E-03
  0.29186890E-02 -0.47440587E-03 -0.15121862E-03  0.97127178E-04  0.18994704E-03
  0.15358974E-03 -0.11078689E-03 -0.60312655E-03  0.11931552E-05  0.96224521E-05
  0.11037151E-04 -0.68078380E-05 -0.82502944E-05 -0.75261840E-05 -0.96594536E-05
 -0.79771905E-05  0.27995683E-04  0.52836774E-05 -0.32410602E-04 -0.17365672E-04
  0.12508008E-04  0.50015320E-05 -0.11143463E-04 -0.93648364E-05  0.48327563E-05
  0.25902442E-04  0.15904237E-04 -0.13653742E-04 -0.48151561E-06  0.16783929E-04
 -0.30763218E-04  0.29076346E-05  0.79038054E-05  0.22889486E-05  0.58401908E-05
 -0.10802351E-04 -0.16709481E-05 -0.61242537E-05 -0.33323807E-05 -0.70093345E-05
  0.16565210E-04  0.33162222E-05  0.81340085E-05 -0.20526417E-04 -0.23349417E-04
 -0.20257170E-05  0.64476287E-05 -0.14801867E-04  0.19933912E-04 -0.22414918E-04
 -0.21178607E-04 -0.95913128E-05 -0.42276454E-05  0.19169915E-03 -0.38995095E-03
 -0.12830384E-03  0.20829652E-04  0.16358342E-03 -0.22849749E-03 -0.20327890E-03
 -0.15380116E-03  0.18312900E-03 -0.31847054E-06 -0.98497423E-05  0.17529653E-05
  0.35687160E-05 -0.85440463E-05 -0.90105941E-05 -0.59068622E-05 -0.47329156E-05
  0.65305619E-05  0.13307856E-03  0.12487355E-03 -0.15643093E-03  0.28133537E-03
 -0.34782662E-03 -0.24950084E-03 -0.15807042E-03 -0.30136597E-04  0.53210553E-03

  0.44348221E-05 -0.15599510E-04 -0.10243898E-04  0.25342630E-05  0.14718045E-05
  0.40542808E-04  0.30003152E-05 -0.63476065E-05 -0.59463545E-05 -0.15112842E-04
  0.53860160E-05 -0.49132298E-04  0.30539895E-06  0.11608470E-04  0.29277497E-04
 -0.91348839E-05  0.32070270E-05  0.33348052E-04  0.25156458E-03  0.31456899E-05
  0.11059049E-03  0.74307774E-03 -0.73649018E-04 -0.13845638E-04 -0.21939810E-03
  0.18800651E-03  0.49719605E-04  0.17753981E-04  0.14377075E-05 -0.82115118E-06
  0.21493818E-05  0.16616959E-04 -0.40048694E-04 -0.48944645E-05 -0.16574064E-04
 -0.15686317E-04 -0.10128887E-03 -0.11625362E-04 -0.84672368E-04  0.12853091E-04
 -0.18723468E-04 -0.52318201E-03 -0.11029248E-03 -0.11062368E-03  0.29882657E-04
  0.36607658E-05  0.16226024E-05 -0.14335781E-05 -0.53011311E-05  0.19135138E-05
  0.10864477E-04  0.59571843E-05 -0.18436629E-05 -0.43412355E-05 -0.50482323E-05
 -0.76397509E-07 -0.38297458E-05  0.17956108E-04 -0.80936195E-05 -0.11546546E-06
 -0.15967692E-05 -0.34077373E-05  0.91717492E-05 -0.17354275E-04 -0.68717183E-05
 -0.15735835E-04  0.80939444E-05  0.14412851E-05  0.24124688E-05  0.44646486E-05
  0.11370061E-04  0.19044848E-05 -0.85124835E-05  0.90989057E-05 -0.18143712E-04
  0.10993164E-04  0.22542908E-05  0.10097737E-04 -0.14732935E-05  0.15050577E-04
  0.18534114E-05  0.35383781E-05 -0.11221086E-05 -0.63391808E-04 -0.12114010E-04
  0.33466798E-05  0.30764997E-04  0.49404866E-05 -0.44956308E-05  0.23669173E-04
 -0.80058000E-04 -0.14425694E-03  0.14217209E-03 -0.43108006E-04  0.27010329E-03
 -0.68598680E-03 -0.16183288E-03  0.17559620E-03  0.13173395E-03 -0.11820199E-04
 -0.27379306E-04 -0.38486797E-04 -0.17854466E-04  0.11982154E-04  0.36797599E-05
 -0.61513550E-05 -0.10464125E-04  0.29292739E-04  0.38889064E-03 -0.20960671E-03
 -0.32157401E-03  0.91341302E-03 -0.25033559E-03  0.37208610E-04  0.23911251E-04
 -0.46714355E-03 -0.13463963E-03  0.25825034E-04  0.37140307E-04  0.87402890E-05
  0.10420403E-04 -0.25145871E-04  0.48955374E-04 -0.18555335E-04  0.20124800E-04
  0.11218510E-04 -0.61347894E-04  0.49839212E-03  0.23771843E-03 -0.11252915E-03
  0.97592355E-04 -0.27420159E-03  0.20033137E-03  0.85695014E-04 -0.19848041E-03
 -0.55982084E-04 -0.52819586E-04  0.13898014E-03 -0.57562292E-04 -0.59152147E-04
  0.79871299E-04  0.26259337E-04 -0.10121325E-03 -0.47554721E-04 -0.39013131E-03
 -0.47440587E-03  0.30839747E-02  0.40180364E-03  0.58264098E-03 -0.43198875E-03
 -0.22450586E-04  0.35575849E-03  0.30951548E-03 -0.10295793E-04 -0.87388586E-05
 -0.13964021E-05  0.40045491E-05  0.66948336E-05 -0.54210307E-06  0.43261392E-05
 -0.92131395E-05 -0.17275565E-04 -0.13416277E-04  0.21352086E-05 -0.81655412E-05
  0.65530627E-05  0.17051644E-04  0.11232932E-04 -0.20693058E-05 -0.51702465E-05
 -0.93078741E-06 -0.13060989E-04 -0.36213458E-05 -0.65139656E-05 -0.77396734E-05
  0.14204210E-04  0.17813321E-05  0.20952659E-05 -0.16247630E-06  0.13317668E-04
  0.86185204E-05 -0.26485765E-05 -0.27424896E-05  0.50959344E-05  0.42671826E-05
 -0.91921972E-05  0.12027782E-04 -0.72750551E-06  0.23801151E-05  0.25440958E-04
  0.42742427E-04  0.20367663E-04  0.58335343E-06  0.12105010E-04 -0.66300353E-05
  0.21454786E-04  0.11246173E-04  0.45430309E-04 -0.26879910E-04  0.37885755E-03
  0.40308496E-03  0.13644973E-03 -0.17484570E-03  0.11851568E-02  0.11094209E-03
 -0.24484552E-03 -0.12320709E-05  0.13326489E-04 -0.99586813E-05  0.93860601E-05
 -0.10624555E-04  0.17552056E-04  0.23166575E-04  0.99572943E-05  0.10677449E-04
  0.78917963E-05 -0.46722063E-04  0.11567385E-04  0.13911389E-03  0.13887799E-03
  0.53927553E-04  0.29675558E-04 -0.66802170E-04  0.13737135E-03 -0.28119928E-03

 -0.10822005E-05  0.12983306E-04  0.17809009E-05  0.29044245E-04 -0.80660158E-06
 -0.18362314E-04 -0.69812960E-05  0.49818447E-05  0.15471790E-04  0.14831353E-04
 -0.21722839E-04  0.10032976E-05  0.97091165E-06 -0.90202486E-05  0.22454486E-04
 -0.60606355E-05  0.20171748E-05  0.54293336E-05 -0.45993470E-05  0.59282018E-04
  0.26131482E-04 -0.70949304E-03  0.14482392E-03  0.23056523E-03  0.16853559E-03
  0.34971922E-05  0.15684017E-03  0.36047479E-05  0.48147605E-05 -0.13862301E-05
  0.12288551E-04  0.87466010E-05 -0.18244586E-04  0.60891156E-05 -0.57626186E-05
 -0.10710579E-04 -0.15880263E-03  0.12373979E-03 -0.76437713E-04 -0.91664976E-04
  0.25755706E-03  0.54139996E-04  0.14910330E-03  0.19635188E-03  0.65682298E-04
 -0.11557044E-04 -0.36299446E-05  0.37439992E-05  0.10261028E-04  0.80339497E-05
 -0.66931252E-05  0.27429351E-05 -0.83905803E-05  0.51452409E-05  0.65709332E-05
  0.43926453E-06  0.82306351E-05 -0.21125670E-04  0.23239808E-04 -0.86412212E-05
  0.25558056E-05 -0.64302812E-05  0.36265797E-05 -0.19657574E-04 -0.15514415E-05
 -0.11390414E-05 -0.23163867E-04  0.58494666E-05  0.42593133E-05 -0.54003932E-05
 -0.85759827E-05  0.12998843E-05  0.67613734E-05  0.97261291E-05  0.44919011E-05
  0.26992428E-04 -0.11791883E-04  0.23030080E-05  0.17725034E-05  0.11338616E-04
 -0.43401283E-05 -0.11123890E-04  0.13607330E-05  0.14706409E-05  0.18841539E-04
 -0.11938696E-04 -0.46668097E-05  0.47346569E-05  0.17353073E-04 -0.57056222E-05
  0.61796334E-04 -0.23862069E-03  0.23112416E-04  0.30594144E-04 -0.16197550E-04
  0.12892178E-03 -0.12767734E-05  0.35864595E-04 -0.46152170E-04  0.32746179E-04
  0.20924001E-05 -0.48043890E-05 -0.15317645E-04 -0.11003373E-04  0.39418113E-05
 -0.70226734E-05 -0.12856512E-04  0.58390648E-05 -0.34581056E-04 -0.14681752E-03
  0.37446352E-04  0.28957316E-03 -0.46748427E-04 -0.24988010E-04 -0.50008781E-04
 -0.10116151E-03 -0.43443227E-04  0.15478247E-04  0.59868731E-05  0.55168093E-05
  0.11054697E-04  0.70611278E-05 -0.10013333E-04 -0.12814246E-05  0.18361254E-04
  0.12254449E-04 -0.11330423E-03  0.16394253E-03  0.49305518E-04 -0.30236484E-03
  0.27858171E-03 -0.71104505E-04 -0.72629794E-05  0.36965386E-04  0.70734523E-04
 -0.58836466E-04 -0.54751292E-05  0.49220902E-04 -0.25345498E-04 -0.21188220E-04
  0.70827710E-05  0.13330617E-04 -0.87606751E-04 -0.26769212E-05 -0.16244180E-05
 -0.15121862E-03  0.40180364E-03  0.28055264E-02 -0.12089924E-02 -0.15425507E-02
  0.20170874E-03 -0.46711979E-04  0.33600288E-03 -0.16696974E-04 -0.35157883E-05
 -0.12114375E-04 -0.39284055E-04  0.16144462E-04  0.21418184E-04  0.52462069E-05
  0.11570289E-06  0.11224142E-05  0.21242441E-05  0.74083668E-06  0.12569193E-04
 -0.31246144E-05 -0.44431254E-05  0.16261039E-05  0.30076503E-05  0.33110077E-05
 -0.39050068E-05  0.24858800E-05  0.21477107E-05  0.19010591E-05 -0.13951449E-04
  0.10064839E-04  0.14136298E-04  0.49556224E-05 -0.11920662E-05  0.26279849E-05
 -0.79420663E-05  0.81163636E-05 -0.11831201E-04 -0.12543186E-04  0.30545935E-05
 -0.12250864E-05 -0.15336409E-05 -0.66979705E-05  0.11560904E-05 -0.94989761E-05
 -0.49125091E-05 -0.63844554E-06 -0.95083989E-05 -0.67248525E-05  0.17429389E-04
  0.64665385E-05  0.11127154E-04 -0.19592658E-05  0.19643595E-04  0.61166130E-05
  0.57695072E-04 -0.41242407E-03  0.81637983E-04  0.15460464E-03  0.36015486E-04
  0.70760532E-06 -0.65012109E-04  0.14229399E-04 -0.40360076E-07 -0.88999335E-05
  0.40627397E-04 -0.16235247E-04 -0.69145276E-05  0.32309664E-05  0.81123252E-05
 -0.34618423E-05  0.66872794E-04  0.12459908E-03 -0.48546354E-04  0.56008955E-03
 -0.83757041E-04 -0.21553748E-03  0.67063164E-04 -0.20072844E-04  0.59400482E-04

 -0.10110686E-04 -0.12136931E-04  0.84452136E-05 -0.18734452E-04  0.11152692E-04
  0.28628952E-04 -0.63545662E-06 -0.94243335E-05 -0.26455995E-04 -0.27575572E-04
  0.75488311E-05 -0.16953148E-04  0.38399527E-05  0.35638732E-05  0.16573892E-04
 -0.39735129E-04 -0.30243776E-04  0.99680601E-05  0.22528487E-03 -0.38285929E-03
 -0.24146295E-03  0.22664991E-03  0.38863817E-03 -0.36170749E-04 -0.51576942E-04
 -0.54189749E-04 -0.12933311E-04 -0.60251007E-05 -0.12586084E-04  0.22737642E-04
  0.84848672E-05 -0.22794135E-04  0.10893121E-04  0.13281156E-04  0.20242276E-05
  0.21744028E-04  0.14716087E-04 -0.31156772E-03  0.15035399E-05  0.21801473E-03
 -0.53574309E-03 -0.11725352E-04 -0.19035220E-03  0.86830211E-04  0.18179971E-03
  0.16390329E-04  0.86732616E-05 -0.38588395E-05 -0.28202282E-05 -0.30235145E-04
  0.13379708E-04 -0.16272209E-05  0.62504503E-05 -0.30197190E-04 -0.30181660E-04
 -0.59896254E-05  0.71030716E-05  0.29210852E-04 -0.50214251E-04 -0.20126947E-05
  0.11155809E-04  0.10163583E-04 -0.11646818E-04 -0.16941782E-04  0.11871557E-04
 -0.54554269E-06  0.11224012E-04  0.28627529E-04  0.19924645E-05  0.12147402E-05
 -0.94161353E-06 -0.72827820E-06  0.65573935E-05 -0.51010860E-04 -0.14337727E-05
  0.89377115E-05 -0.11049983E-04  0.11177320E-05  0.84083944E-05 -0.67444714E-08
  0.50253404E-04  0.16165654E-04  0.72682515E-04 -0.20725323E-04 -0.10768445E-05
  0.58844295E-04 -0.17468135E-04 -0.78756059E-05 -0.20241034E-04  0.18868239E-04
 -0.21326433E-03  0.12097438E-02  0.28555542E-04  0.21937453E-03 -0.53291460E-03
 -0.67441531E-04  0.68153845E-04  0.62751839E-04  0.27426392E-04  0.22941954E-04
 -0.84436895E-04 -0.31138183E-04  0.12414303E-04  0.10591022E-03 -0.36728264E-04
  0.21485917E-04  0.51737871E-05  0.22787644E-04 -0.17657948E-04 -0.15067440E-03
 -0.63865825E-03  0.66668728E-03 -0.46910356E-03  0.60064943E-04  0.36314408E-03
 -0.10465831E-03 -0.17828164E-03  0.20279009E-05 -0.55626779E-04  0.14968046E-04
 -0.33769369E-05 -0.72179564E-04  0.84031929E-04 -0.25735576E-04 -0.28211279E-05
  0.98555142E-04 -0.65509433E-04  0.13175654E-05  0.24982937E-03  0.88066228E-04
 -0.10330811E-03 -0.32518750E-03  0.37783733E-03  0.14128609E-03  0.16857875E-05
 -0.37155560E-04 -0.68416125E-04  0.79042647E-04 -0.29168403E-04 -0.59098592E-04
  0.26225636E-04  0.21514628E-04 -0.33680074E-04 -0.15885468E-03 -0.30995236E-03
  0.97127178E-04  0.58264098E-03 -0.12089924E-02  0.78452109E-02 -0.17445996E-02
  0.31901485E-03  0.39892598E-03 -0.24033502E-03  0.15623269E-04  0.64967621E-05
  0.27924237E-04  0.22797932E-04 -0.83104926E-04  0.35506173E-04 -0.67560850E-05
  0.12168726E-04 -0.76140960E-05 -0.17876594E-04  0.32689026E-05  0.25724776E-05
 -0.96340503E-05  0.10199960E-03  0.52031538E-06  0.58914910E-05  0.17499720E-05
  0.12490512E-04  0.31969502E-05 -0.61507181E-05  0.12259434E-04 -0.54300588E-05
  0.62495535E-05  0.14318344E-04 -0.18351937E-04 -0.60049463E-05  0.10103977E-06
  0.14133399E-04 -0.68335430E-05  0.41408256E-05  0.29422125E-05 -0.33784980E-05
  0.11990815E-04  0.14588531E-04  0.38242799E-05 -0.14471767E-04  0.25593460E-04
  0.27903839E-04  0.38432709E-05 -0.59669826E-05  0.37436628E-04 -0.74911564E-05
  0.23746627E-04 -0.69476054E-05  0.64814552E-04  0.78770716E-05 -0.49912146E-04
 -0.77780535E-04  0.34435769E-03 -0.11523550E-03  0.93422996E-03  0.11876463E-03
  0.19484883E-03  0.35730428E-03 -0.73739780E-06  0.83682249E-05 -0.27792259E-05
 -0.15766304E-04  0.38702242E-04  0.76980490E-05 -0.85511642E-05 -0.18712340E-05
 -0.13214720E-04 -0.91888022E-04  0.14834981E-03  0.27157900E-03  0.22582351E-03
 -0.89639428E-04  0.12111730E-03 -0.48841544E-03  0.18751852E-03 -0.43914710E-03

  0.78955959E-05 -0.16350359E-04 -0.30476869E-04 -0.12338124E-04 -0.44040920E-05
  0.60587204E-04  0.36324621E-05  0.15221671E-05 -0.23154395E-04 -0.15011888E-04
 -0.25632932E-04 -0.36582453E-04  0.67956055E-05 -0.32021814E-05 -0.44371469E-04
  0.82430721E-05  0.88723339E-05 -0.11998875E-04 -0.42992015E-03 -0.44537041E-03
 -0.13434510E-03  0.21566715E-03  0.33258766E-03 -0.47932051E-03  0.28935973E-03
  0.11719617E-03 -0.19256294E-03  0.14522392E-05 -0.28819189E-05 -0.54531806E-04
 -0.15702283E-04  0.56720348E-05  0.20501430E-04  0.23864190E-05  0.12429004E-05
 -0.41847584E-05  0.10233173E-03 -0.10059298E-03  0.83531452E-04  0.56880882E-05
 -0.28483370E-03 -0.98540593E-04 -0.29062496E-03 -0.12682189E-03 -0.85232700E-04
  0.74418872E-05 -0.10562528E-04  0.17268865E-04 -0.94819365E-05 -0.75390311E-05
  0.85673147E-05  0.16500874E-05  0.10814052E-06 -0.22002029E-05  0.21871035E-05
  0.32667308E-05 -0.15201559E-04 -0.17468407E-06 -0.99292512E-05  0.82790653E-05
 -0.13963245E-05 -0.96811585E-05 -0.15439558E-04  0.31894965E-04  0.10881539E-04
 -0.15190674E-04  0.47591874E-05 -0.34293470E-05  0.70011742E-05  0.23347956E-05
  0.31606909E-04 -0.12815657E-04 -0.68597704E-05 -0.11258110E-04 -0.17373269E-04
 -0.30959768E-04  0.94980966E-05 -0.25250073E-04 -0.10701686E-05 -0.13530393E-04
  0.47347689E-05 -0.16490546E-04 -0.25825993E-04  0.10288141E-04 -0.13299081E-04
 -0.21295999E-04  0.33661672E-04 -0.11954271E-04 -0.18914728E-04 -0.70168532E-05
  0.16882061E-03 -0.71388137E-04 -0.39585061E-03 -0.38727943E-04  0.25308271E-03
 -0.84832295E-03  0.26502374E-05 -0.64335081E-04  0.41569677E-04 -0.18776776E-04
  0.17005590E-04 -0.41268440E-04 -0.20759229E-04  0.29589893E-05  0.18685465E-04
 -0.55508237E-05  0.13573399E-04 -0.67887762E-05  0.15836616E-04 -0.15916465E-04
  0.26906345E-04  0.20806642E-03  0.54965145E-04 -0.30808598E-03 -0.11339154E-03
 -0.14311178E-03  0.63675182E-04 -0.13943101E-04 -0.12780313E-04 -0.65312560E-04
  0.14020036E-05 -0.10429914E-04 -0.18891890E-04  0.56400863E-05  0.27460541E-05
 -0.49138104E-04  0.89487217E-04 -0.11932492E-03 -0.11308432E-03  0.12610209E-03
 -0.32667113E-03  0.62441563E-04  0.23302887E-04  0.10469385E-03 -0.16205650E-04
  0.95096122E-04  0.38551791E-04 -0.12483153E-03  0.42015928E-04  0.41051758E-04
  0.26062341E-04 -0.39317398E-04  0.73936285E-04  0.10585576E-03  0.14737966E-03
  0.18994704E-03 -0.43198875E-03 -0.15425507E-02 -0.17445996E-02  0.56333162E-02
 -0.53533914E-04 -0.38180993E-03 -0.54256751E-03  0.84262277E-05  0.98608718E-05
  0.19252010E-04  0.20805284E-04  0.18808445E-04 -0.23768098E-04 -0.39550165E-06
 -0.17844661E-04  0.75928683E-05 -0.43302066E-05 -0.82316465E-05 -0.23224932E-04
 -0.76350909E-06 -0.36267437E-05 -0.25277634E-04  0.21788325E-05  0.10684986E-04
  0.55718422E-05  0.74567365E-05  0.51865949E-05 -0.14875277E-04  0.25588020E-04
 -0.16445576E-04 -0.47433531E-04  0.17756829E-05  0.11894640E-05 -0.12027770E-04
 -0.63678386E-06 -0.64506648E-05 -0.12951280E-04  0.10497219E-04  0.26920576E-05
  0.10937239E-04 -0.17213287E-05  0.67558303E-05 -0.89085627E-05 -0.29736659E-06
  0.12994114E-04  0.29108387E-05  0.21353798E-04  0.86122215E-05 -0.59636272E-04
 -0.10978557E-04  0.88381250E-06 -0.12136336E-04  0.22975560E-04 -0.57952232E-04
 -0.89257553E-04 -0.10794878E-03  0.86856754E-04 -0.33966125E-03  0.68661743E-04
  0.20062359E-03 -0.13215895E-03  0.77003031E-06 -0.59281005E-05  0.33091817E-04
 -0.16670708E-04  0.68920347E-05 -0.16061980E-04 -0.47549523E-05 -0.84133398E-05
  0.47598075E-05 -0.11856566E-03 -0.13927917E-03 -0.64201218E-04 -0.44341469E-03
  0.23293442E-03  0.39213870E-03  0.40402447E-04  0.20803933E-03 -0.13852042E-04

  0.74897755E-05  0.10283120E-04 -0.10825782E-05  0.58706881E-05  0.11993556E-04
  0.81585158E-05 -0.49506861E-06  0.34545252E-05  0.39817271E-05 -0.12513604E-06
 -0.42102468E-05 -0.11699146E-04  0.12263527E-04  0.61854064E-05 -0.17594849E-04
 -0.91854397E-06 -0.26320946E-07  0.16291743E-05 -0.76395241E-04  0.13603325E-03
  0.67412854E-04 -0.18794008E-03  0.32388966E-03 -0.74774612E-04  0.11613888E-03
 -0.16237629E-03 -0.18264501E-03 -0.10379114E-05  0.19600542E-04 -0.15211125E-04
  0.19990021E-05 -0.22391214E-05  0.13896757E-04  0.73945523E-05  0.88146117E-06
  0.14772308E-04 -0.28276253E-04 -0.66233801E-04  0.11680738E-03 -0.10370819E-03
 -0.12948687E-04 -0.13385037E-03 -0.31710800E-03 -0.10890797E-03 -0.18924287E-04
  0.42036122E-05  0.53234332E-05  0.44599975E-05  0.10261479E-04  0.16859639E-04
  0.40218380E-05 -0.45300538E-05  0.93966918E-05 -0.78704853E-05  0.43731827E-05
 -0.98120991E-05  0.11285351E-04 -0.70423382E-05  0.94387461E-06  0.99622870E-05
  0.39959982E-05 -0.12119541E-04 -0.23179780E-05  0.12859252E-05  0.36440812E-05
 -0.41807109E-05  0.62716439E-05  0.56474511E-06  0.13465473E-05 -0.29160245E-05
  0.94762468E-05 -0.21465546E-05  0.57494372E-05  0.12353764E-04 -0.30835885E-05
 -0.10565111E-04 -0.14975324E-04 -0.31805533E-05  0.56231617E-05 -0.23869815E-06
  0.90595686E-05 -0.80926662E-05  0.92648134E-07  0.60449283E-05 -0.93731478E-05
  0.24670308E-04  0.80875349E-05 -0.74486183E-05 -0.95258164E-05 -0.86181318E-05
  0.57325499E-04 -0.10987580E-03 -0.94151265E-04 -0.46124317E-04 -0.12321663E-03
 -0.33070200E-04 -0.35810483E-05 -0.39617153E-04 -0.28705650E-04  0.73198687E-05
  0.23118508E-04 -0.11990908E-04 -0.41695831E-05 -0.23590115E-05  0.13343068E-04
  0.42254903E-05  0.15254356E-05 -0.31910475E-05 -0.34181273E-03  0.14468586E-04
  0.62559623E-04  0.61754465E-03 -0.21296998E-03 -0.24880788E-03 -0.10763337E-03
  0.94847056E-04  0.11103952E-03 -0.10980463E-05 -0.12983390E-04 -0.33301857E-05
 -0.28843156E-04  0.96956900E-05 -0.37221046E-05 -0.16797113E-04  0.10410156E-04
  0.18505337E-04 -0.17181312E-03  0.83166467E-04  0.69860389E-04  0.11450359E-03
  0.49166575E-03 -0.27119639E-03 -0.39188194E-03  0.19309215E-04  0.25026568E-05
 -0.28769708E-05 -0.34633558E-04 -0.38693837E-04  0.34303465E-04  0.31520559E-04
 -0.68747443E-04 -0.66755722E-05 -0.11581738E-04 -0.37605562E-04  0.50709150E-04
  0.15358974E-03 -0.22450586E-04  0.20170874E-03  0.31901485E-03 -0.53533914E-04
  0.18305068E-02 -0.21908255E-03 -0.20395913E-03 -0.11298549E-05  0.15185397E-04
  0.22964546E-05  0.11251565E-04 -0.13593208E-04 -0.38469436E-05 -0.29186679E-04
 -0.10624278E-05 -0.12433381E-05 -0.87228453E-05  0.20608180E-05  0.72179636E-05
 -0.66224909E-05 -0.18264775E-04  0.15772036E-05 -0.78468923E-05 -0.35117983E-05
  0.20856613E-05 -0.11616440E-05  0.12797185E-04 -0.18929157E-06  0.96978299E-05
 -0.21610479E-04  0.22854545E-05 -0.76804043E-05  0.23700962E-05 -0.13155709E-04
  0.14681290E-05 -0.11826291E-05  0.10265548E-05  0.41088779E-05  0.17739343E-04
 -0.64031604E-05  0.33518628E-05 -0.62862440E-05 -0.18188816E-04 -0.26676939E-04
  0.97470002E-05 -0.11678071E-04 -0.97418048E-05  0.24956753E-04 -0.85984662E-05
 -0.25992782E-04  0.99795917E-06 -0.10416082E-04  0.11577200E-03 -0.16965024E-04
  0.14570019E-03  0.21743817E-03  0.27844892E-04 -0.78619715E-03  0.72182407E-04
 -0.17698417E-03 -0.91066347E-04 -0.66222714E-05 -0.58423148E-05 -0.10040880E-04
 -0.30755832E-05  0.48350779E-05 -0.64338884E-05  0.46343944E-05 -0.51785709E-05
  0.84525396E-05  0.70394660E-05 -0.92746288E-04  0.13905582E-03  0.86142407E-04
 -0.72288987E-04 -0.33658638E-04  0.25489658E-04 -0.76151351E-04  0.90884645E-04

 -0.28525514E-05 -0.16665623E-05  0.26168275E-05  0.12097399E-05  0.51802397E-05
  0.22920378E-05 -0.48250152E-06  0.12009724E-04 -0.17104564E-05  0.16289057E-05
  0.13867168E-04 -0.10504760E-04 -0.23214182E-05  0.10508626E-04  0.68133783E-05
  0.58791426E-05 -0.13483319E-04  0.11632541E-04  0.32749834E-04  0.24099183E-03
 -0.77797251E-04  0.11895079E-03 -0.49299404E-04 -0.57321364E-04 -0.15773668E-03
 -0.68037284E-04 -0.35449516E-04 -0.29619544E-05 -0.35466004E-05 -0.10039663E-05
  0.95548928E-05 -0.17996440E-05 -0.94473953E-05  0.19405172E-05  0.83626751E-06
  0.11109540E-04  0.41574480E-04  0.28328526E-04  0.82035420E-04  0.13575551E-03
  0.65399652E-04 -0.18594510E-03 -0.15842967E-04 -0.14003266E-03 -0.75459144E-04
  0.94983132E-05  0.98080292E-05  0.28751859E-05 -0.91142488E-05  0.87718150E-05
  0.89053622E-05  0.66567654E-06  0.11051911E-05 -0.19921761E-05  0.59075388E-05
 -0.23216324E-05  0.84942676E-05  0.64390332E-06  0.27479594E-05 -0.36302433E-06
 -0.90376448E-05  0.62543733E-05  0.82835952E-05 -0.58464896E-05 -0.73594963E-05
  0.16105745E-04  0.19670822E-05 -0.61596006E-05  0.14633919E-04 -0.77070526E-05
 -0.75296598E-05 -0.19016310E-05 -0.24595234E-06  0.23272418E-05  0.11561648E-06
  0.14545817E-04  0.32855421E-05 -0.69631422E-05  0.10354346E-04 -0.19359887E-04
  0.64939867E-05  0.16958368E-04 -0.99711558E-05 -0.35658597E-04  0.12501449E-04
 -0.54837858E-05 -0.16404127E-04 -0.72964479E-06 -0.11896030E-05 -0.36785447E-05
 -0.22522515E-03  0.70999770E-04  0.70359111E-04 -0.11358650E-05  0.16072461E-03
 -0.19295209E-03 -0.48506752E-04 -0.92342814E-04  0.14085111E-03 -0.12801946E-04
 -0.20399466E-04  0.32520894E-05 -0.19756872E-04  0.99046973E-05  0.93990842E-05
  0.53151157E-06 -0.12711033E-05  0.10683188E-04  0.19985809E-03 -0.45132769E-04
 -0.26052934E-03  0.31949111E-03 -0.67117838E-04 -0.44402508E-04  0.12389826E-03
  0.23378240E-04 -0.73992882E-04  0.50312163E-06  0.86699212E-05  0.13207380E-04
  0.22139133E-04 -0.21311798E-04  0.38007304E-04  0.86461488E-05 -0.72414600E-06
  0.89769204E-05 -0.77103378E-05  0.11007142E-03 -0.82596049E-04  0.96383571E-05
 -0.25938714E-03  0.85532171E-04  0.24798409E-03 -0.14902863E-03  0.40786644E-04
  0.20538102E-04 -0.39531019E-04  0.96604880E-04 -0.92965521E-04 -0.25683356E-04
  0.74894581E-04  0.64842885E-06  0.15753965E-04 -0.54712551E-04 -0.23332364E-03
 -0.11078689E-03  0.35575849E-03 -0.46711979E-04  0.39892598E-03 -0.38180993E-03
 -0.21908255E-03  0.19368119E-02  0.32106967E-03 -0.47038632E-06 -0.86167449E-05
  0.26983568E-05 -0.45718055E-05  0.15940361E-04 -0.15297445E-04  0.13664950E-04
 -0.43358762E-05 -0.61970394E-05 -0.61389238E-05  0.62388194E-05  0.97118671E-06
  0.29263634E-05  0.64997738E-06  0.14370730E-04  0.29929935E-05 -0.92995297E-05
  0.11199296E-04 -0.42951023E-05  0.10519641E-06  0.93981320E-05 -0.27346092E-05
  0.11980805E-04  0.76622402E-05  0.25324896E-05  0.98404975E-06  0.10243849E-04
 -0.21177134E-04  0.59584273E-06 -0.84104196E-05  0.31632663E-05 -0.58139395E-05
  0.28756013E-05 -0.65866808E-05  0.41304826E-05 -0.41418908E-05  0.66087478E-05
 -0.64564735E-05  0.54274811E-05  0.19755496E-04 -0.31492558E-05  0.10257969E-04
  0.12878024E-05  0.26804112E-05  0.19919714E-05  0.50638358E-04 -0.12840683E-03
  0.40211722E-04 -0.15933738E-03  0.11045751E-03  0.59538775E-03  0.58548501E-05
 -0.18912617E-03  0.20971792E-03 -0.21046006E-05 -0.94542996E-06 -0.35720714E-05
  0.64845393E-05 -0.45927909E-05  0.35991884E-05 -0.61763837E-05 -0.10150665E-05
 -0.11605534E-04  0.10421288E-03  0.31810111E-04  0.58337965E-04  0.19059917E-03
 -0.57323774E-05  0.80760708E-04 -0.56769765E-04  0.13168084E-03 -0.12967768E-03

  0.46057673E-06 -0.13370761E-04  0.20264123E-04  0.25797963E-05  0.25409919E-04
 -0.85830042E-05  0.99885205E-05  0.12057561E-04 -0.43552823E-05 -0.80970219E-05
  0.22479863E-04  0.13949193E-04  0.17761489E-04 -0.12436109E-04 -0.24121072E-05
 -0.30847242E-05 -0.30263149E-05  0.58012017E-05  0.49490477E-03  0.47822239E-03
 -0.36426559E-04  0.32549471E-03 -0.19082143E-03 -0.20893872E-03 -0.17087873E-03
 -0.16064546E-03  0.26997707E-03 -0.17060506E-04  0.84041346E-05  0.52511861E-05
  0.51728177E-05  0.75812057E-05 -0.29590991E-04 -0.98176255E-05  0.20221058E-04
  0.75514283E-05  0.15337882E-03 -0.95501620E-04  0.14601330E-03 -0.14843425E-03
  0.17559739E-03 -0.23936155E-03  0.11274599E-03 -0.17366926E-03 -0.31042504E-03
  0.93667388E-05  0.50470035E-04 -0.46197730E-05  0.16201644E-04 -0.13330294E-04
 -0.73268988E-05 -0.99353330E-05  0.20713288E-04 -0.12554196E-04  0.78504662E-05
  0.20026317E-04 -0.38622465E-05  0.23010806E-05  0.10833735E-04 -0.32613937E-04
 -0.28066718E-05  0.14858949E-04  0.21331996E-04 -0.10940776E-04  0.60321720E-06
  0.55485618E-06  0.12360111E-04  0.56687498E-05  0.17436371E-04 -0.12992376E-04
 -0.44472352E-05 -0.13276215E-04  0.85461805E-06  0.23951929E-05  0.81312489E-05
  0.46436914E-05  0.22795287E-05  0.22656814E-04  0.76741121E-05 -0.23814899E-04
  0.10014069E-04  0.30456779E-04 -0.40632787E-04 -0.24319042E-04 -0.51302308E-05
 -0.38341929E-04  0.13488107E-05 -0.11505280E-04 -0.34360739E-05 -0.65152000E-05
 -0.15499701E-03  0.37278395E-03 -0.15313876E-04  0.68904614E-04  0.32680950E-03
 -0.45138564E-03 -0.21559344E-03  0.19641633E-04  0.16442560E-03  0.97127892E-06
  0.14455386E-04  0.18391936E-05  0.48164455E-05  0.26552250E-04  0.68736549E-05
 -0.87925691E-05 -0.67227143E-05 -0.25308336E-04 -0.22302285E-04  0.21086367E-03
 -0.35683654E-03  0.25106443E-03 -0.94316796E-04  0.14900987E-03  0.15951512E-03
 -0.14210951E-03 -0.23897780E-03 -0.21520437E-05 -0.78761988E-05 -0.32973862E-04
  0.18736085E-04  0.10929268E-04 -0.38261567E-05  0.77406432E-05 -0.17902385E-04
 -0.20497716E-04 -0.40201129E-04 -0.12057230E-03  0.12969174E-04  0.30192686E-03
  0.15407139E-03 -0.13398008E-03 -0.97081196E-04 -0.11753960E-04 -0.24607601E-03
 -0.69421499E-04  0.54937901E-04  0.82178139E-04 -0.10978236E-04 -0.10944291E-03
  0.74263900E-04 -0.34105335E-04 -0.83611886E-04  0.38591921E-04  0.16489173E-04
 -0.60312655E-03  0.30951548E-03  0.33600288E-03 -0.24033502E-03 -0.54256751E-03
 -0.20395913E-03  0.32106967E-03  0.38101060E-02 -0.19413443E-05 -0.17787499E-04
 -0.15918195E-04 -0.36704469E-05  0.39877452E-04 -0.21069960E-04  0.10913629E-04
  0.53314996E-05 -0.36286592E-04  0.15615585E-04 -0.10309882E-04 -0.23662661E-05
  0.65342995E-05 -0.17765691E-05  0.16336458E-04  0.72065805E-05  0.20408102E-05
 -0.17192871E-04 -0.64428494E-05  0.70509490E-05 -0.19955006E-05 -0.76311384E-05
  0.25911237E-04  0.79047317E-05 -0.12525475E-04  0.39612278E-05 -0.19246634E-04
 -0.47881027E-05  0.60286514E-05 -0.10989564E-04  0.36624124E-05 -0.13281720E-04
 -0.13453840E-04 -0.39028467E-05 -0.36798240E-06  0.31374797E-04  0.13696187E-04
  0.18388302E-04 -0.45870743E-04 -0.11416170E-04  0.20350817E-04  0.27457775E-04
 -0.64429189E-05  0.40732150E-05 -0.19767019E-04  0.35255771E-05  0.31576675E-03
  0.15523001E-03  0.35617523E-03 -0.29553583E-05 -0.66595383E-03 -0.61707877E-04
 -0.53281310E-03 -0.11868220E-03 -0.57901725E-05  0.77828336E-05 -0.82922760E-05
 -0.71807612E-05 -0.73657225E-05  0.14989490E-04  0.15964597E-04  0.13517091E-05
 -0.58648729E-05  0.22207388E-03  0.63709447E-04 -0.37184884E-03 -0.51077363E-04
 -0.16234127E-03  0.47400215E-04  0.37422842E-04  0.13346267E-03  0.96259510E-04

  0.15195402E-05 -0.25643998E-05  0.57322821E-06 -0.91838368E-06 -0.90745532E-06
 -0.92293362E-06 -0.10815672E-05  0.13225519E-05 -0.88451512E-06 -0.85841240E-06
  0.24536630E-05  0.13993729E-05  0.12308415E-05 -0.17678084E-06 -0.96609100E-06
  0.66101519E-06 -0.92261287E-06 -0.74408342E-06 -0.37994856E-05  0.12518477E-04
  0.14822632E-04 -0.20168648E-04  0.71241465E-06  0.15492617E-04  0.75312952E-05
 -0.77267760E-06  0.10295202E-04 -0.22359827E-05  0.56973765E-06  0.48268985E-06
  0.18057527E-06 -0.20776406E-05  0.16390790E-05 -0.12311342E-05  0.92669994E-06
 -0.22253358E-06 -0.33251578E-06 -0.17249495E-04 -0.28854950E-06  0.20100104E-07
 -0.82605489E-05 -0.16347731E-04 -0.44525669E-05 -0.15398463E-04 -0.15819299E-04
  0.13022944E-05  0.12429229E-05 -0.33736759E-06 -0.97717363E-06  0.39325655E-07
 -0.21067047E-05  0.64226426E-06 -0.95935852E-06 -0.18480730E-07 -0.23757753E-05
 -0.54198183E-06 -0.10047300E-05 -0.83491129E-06 -0.41187811E-06 -0.18018728E-06
 -0.35060445E-06  0.32692425E-06  0.10841783E-05 -0.41718981E-06 -0.32968950E-06
  0.73787556E-06 -0.19198026E-07 -0.32285364E-06  0.90598477E-06 -0.10119920E-05
 -0.11970649E-05 -0.75054491E-06  0.20529427E-06 -0.95936481E-07 -0.21098974E-05
  0.14474764E-05 -0.59240016E-06  0.47376528E-06  0.37199578E-06  0.14951868E-07
  0.15271721E-05  0.57224969E-06  0.61306009E-06 -0.12882241E-05 -0.29290384E-06
  0.11376173E-05 -0.11006155E-05  0.12691558E-05  0.41568303E-06  0.48083358E-07
  0.19486597E-04  0.22582298E-04 -0.45565319E-05 -0.35308727E-04  0.15992635E-04
 -0.89503535E-05  0.88550598E-05  0.51329201E-05 -0.13823554E-04 -0.50986435E-06
 -0.43398800E-06 -0.16015200E-05  0.11320256E-05  0.14795907E-05 -0.13016590E-05
  0.18674136E-05 -0.13239412E-05 -0.16900529E-05  0.59662747E-05  0.67830010E-05
  0.85706848E-05 -0.51036227E-05  0.47886584E-06 -0.60912571E-05 -0.20939071E-05
  0.28418597E-04 -0.77002438E-05 -0.31230630E-05  0.98907857E-06 -0.10466455E-05
  0.41479887E-06  0.16711815E-05 -0.68340470E-06  0.10190110E-05  0.59845379E-06
 -0.11162273E-05  0.15171435E-04 -0.32767588E-04 -0.17478624E-04 -0.53916078E-05
 -0.24174929E-04  0.21428454E-04  0.22630646E-04 -0.19294766E-04  0.10379777E-04
 -0.11708799E-05  0.50082546E-05 -0.12428523E-05  0.28841366E-06  0.46115329E-05
 -0.19076997E-05  0.45031995E-06 -0.11065590E-06 -0.13527524E-05  0.96698692E-05
  0.11931552E-05 -0.10295793E-04 -0.16696974E-04  0.15623269E-04  0.84262277E-05
 -0.11298549E-05 -0.47038632E-06 -0.19413443E-05  0.24624369E-04  0.15291497E-05
  0.13746035E-05  0.58471576E-06 -0.16458381E-05 -0.50917739E-06 -0.65678352E-06
  0.24101541E-06  0.94489136E-07 -0.86688584E-06 -0.10359636E-05 -0.59982954E-06
 -0.68088275E-07  0.59908664E-06  0.63948707E-06  0.16933940E-05  0.79564249E-06
 -0.80704421E-07  0.10728524E-06 -0.11588524E-05  0.13742799E-05 -0.81765926E-06
 -0.34525752E-06  0.16955263E-06 -0.11268536E-05  0.20115355E-06 -0.94452201E-06
 -0.18079764E-05  0.16273574E-06 -0.11021663E-05 -0.90295590E-06 -0.88041007E-06
 -0.12460951E-06 -0.19362310E-06  0.98562117E-06  0.31901743E-06  0.12875358E-05
 -0.72159211E-06  0.17801051E-05  0.16531944E-05 -0.15307432E-05 -0.14523148E-06
 -0.10999171E-05 -0.54684027E-06 -0.23590684E-06 -0.35983232E-05  0.13851307E-04
  0.41888098E-05 -0.19324761E-04  0.72360360E-06  0.22921493E-04  0.12299728E-04
 -0.55031961E-05  0.33222328E-04 -0.51759132E-06  0.97674432E-06  0.43819396E-06
 -0.43519720E-06 -0.24817650E-06 -0.27386162E-06 -0.13489500E-06  0.25805860E-06
 -0.46034870E-06 -0.19298461E-04 -0.11573951E-04 -0.37848782E-05 -0.50209187E-04
  0.29750321E-05  0.25625427E-04 -0.11655145E-04 -0.10888348E-04 -0.98077728E-05

 -0.34593865E-06 -0.96129286E-06  0.13990679E-06  0.34981107E-06 -0.16757373E-05
 -0.75573208E-06  0.22399139E-06  0.10275804E-06  0.57037017E-06 -0.33308609E-05
  0.26893940E-06 -0.22054201E-05 -0.17956931E-06 -0.66053021E-06  0.12922920E-05
 -0.10060015E-05 -0.95164737E-07 -0.28962710E-05 -0.56615503E-05 -0.11523954E-05
  0.11171261E-04 -0.16265289E-04  0.47989474E-04  0.67970945E-05  0.16333580E-04
  0.80549320E-05 -0.94948523E-05  0.73992318E-06 -0.49392466E-06 -0.18668197E-05
 -0.20159934E-05 -0.74826317E-06  0.15250505E-05 -0.58962399E-06  0.34465689E-06
  0.11956178E-05  0.15705190E-04 -0.27919169E-05  0.13619337E-04  0.28025863E-05
 -0.14830731E-04  0.60475897E-05 -0.15382010E-04  0.33992452E-05 -0.45774888E-05
  0.12856996E-05  0.31316421E-05 -0.10760508E-06  0.71989096E-07 -0.81101504E-06
  0.93654616E-06 -0.84886810E-06  0.40891041E-06  0.57129499E-06  0.15374756E-06
 -0.51670927E-06 -0.43910197E-06  0.67306061E-06  0.91466762E-06  0.12581793E-05
  0.99407491E-06 -0.43316375E-06 -0.12804718E-06 -0.24087139E-06 -0.59756824E-06
  0.19779343E-06  0.51005608E-07  0.16300359E-05 -0.26321319E-06  0.61460060E-06
 -0.53046476E-07  0.13705616E-05  0.13249320E-06  0.78848784E-06 -0.19671598E-05
  0.15543887E-05 -0.14633015E-05  0.45323551E-06  0.44313598E-06  0.79048560E-06
 -0.17535721E-05  0.23107308E-06  0.33677026E-05 -0.20668544E-05 -0.35706414E-06
  0.60703787E-05 -0.10683420E-06  0.49216445E-06 -0.82563203E-06 -0.65840853E-06
  0.43827008E-05  0.29194302E-04 -0.29536206E-06 -0.17922949E-04  0.61645394E-04
 -0.10486214E-04 -0.12673847E-04  0.10302270E-05 -0.33367111E-04  0.13250519E-05
  0.14931579E-05 -0.23082685E-05 -0.36354565E-07  0.37107514E-05  0.95615102E-06
 -0.10724406E-05 -0.10051145E-06 -0.74805586E-06  0.53873780E-05 -0.22052844E-04
  0.26027784E-04  0.22989246E-04 -0.23815578E-05 -0.38904509E-05 -0.22491286E-04
 -0.39314062E-04  0.61577394E-05 -0.19492468E-05 -0.62879550E-05  0.17599356E-05
 -0.28101726E-05  0.52754498E-05 -0.18829042E-05 -0.78092572E-06 -0.14135963E-05
  0.20601890E-05 -0.65072853E-05 -0.35251670E-04  0.49763034E-05  0.23482466E-04
  0.28860395E-04  0.24516298E-04 -0.22719913E-04 -0.14161732E-04  0.18425980E-04
  0.37260699E-05  0.22571808E-05 -0.26945996E-05  0.72248338E-06  0.42475449E-05
 -0.45195657E-05  0.39642577E-05 -0.12790688E-05 -0.38377031E-06  0.13199001E-04
  0.96224521E-05 -0.87388586E-05 -0.35157883E-05  0.64967621E-05  0.98608718E-05
  0.15185397E-04 -0.86167449E-05 -0.17787499E-04  0.15291497E-05  0.38175501E-04
  0.11608351E-05 -0.24677078E-06 -0.39242179E-05  0.11478675E-05 -0.45430865E-06
  0.59417179E-06  0.11754989E-05 -0.76417081E-07  0.14208844E-05  0.37613840E-05
  0.10975943E-05 -0.39120172E-06 -0.38221684E-05 -0.15277963E-06  0.64256978E-06
 -0.18500943E-05 -0.58494860E-06 -0.25039961E-05 -0.73146313E-06  0.15098575E-05
 -0.66566737E-05  0.13738838E-05 -0.69852542E-06  0.10917467E-05 -0.35117266E-05
 -0.46580081E-07  0.58197595E-06 -0.53244614E-06  0.47228394E-07  0.72777539E-06
 -0.15629335E-05 -0.60999836E-06 -0.36695115E-06 -0.23381833E-06 -0.12695001E-05
 -0.35186354E-07 -0.58934708E-06 -0.10532646E-05 -0.21903800E-05  0.15144436E-05
 -0.16400843E-05 -0.86467027E-06 -0.82755591E-07  0.10403929E-04  0.14189814E-04
  0.11640751E-04  0.14473193E-04 -0.32006892E-04 -0.17213824E-04 -0.15045941E-04
 -0.22226972E-04  0.41098826E-04  0.20204867E-06 -0.12329522E-05  0.97677909E-06
 -0.13122447E-05  0.18171239E-05  0.12208403E-05 -0.14814957E-05 -0.41896212E-06
  0.86456552E-06 -0.18362653E-04 -0.35901240E-04 -0.44464944E-04 -0.38257673E-04
  0.80500177E-05  0.18664427E-05 -0.60033150E-05  0.15761266E-05  0.16754683E-04

 -0.55474487E-07 -0.38779363E-06 -0.55562463E-06  0.41253479E-07  0.74761123E-06
  0.26489953E-05 -0.15522159E-06 -0.14263997E-05 -0.10197162E-05  0.16550672E-06
  0.42034042E-06 -0.23146591E-05 -0.11664175E-05 -0.64814000E-06 -0.13781476E-05
 -0.98417892E-06 -0.29106283E-06  0.44829062E-05  0.19902939E-04  0.85619941E-05
 -0.26635636E-04  0.45964257E-04 -0.20270749E-04  0.95555708E-06  0.11923500E-04
  0.21669316E-04  0.14007657E-04 -0.47381894E-06 -0.25657493E-05 -0.43023552E-05
  0.12943881E-05 -0.69721712E-06 -0.26692641E-05 -0.70393253E-06  0.14358824E-05
  0.12744964E-05 -0.98518900E-08 -0.79591974E-05  0.10794222E-04  0.39978161E-05
 -0.15373261E-04 -0.15702867E-04 -0.25974607E-05 -0.10239156E-04  0.18073628E-04
  0.44492221E-06  0.12552807E-06  0.29505439E-05 -0.18422797E-05  0.18967331E-05
 -0.15970462E-05  0.62955012E-06 -0.19032441E-05 -0.32044954E-06 -0.11417062E-05
  0.13273921E-05 -0.23679679E-05 -0.16888822E-06 -0.10675761E-06  0.28749614E-06
  0.98660372E-06 -0.18449097E-06 -0.12397940E-05  0.84146145E-06  0.33252093E-06
  0.36001485E-06 -0.11948173E-05  0.14296877E-05 -0.19940240E-05 -0.45303624E-06
  0.17062978E-05 -0.20068638E-06 -0.17487493E-05 -0.71823839E-06 -0.31974576E-06
  0.11215877E-05 -0.20159073E-05  0.68408793E-06  0.77726295E-06  0.10266905E-05
 -0.39948657E-06 -0.11064452E-05 -0.11442334E-06  0.23606589E-05  0.80156125E-06
 -0.23379836E-06  0.19340301E-05  0.51131841E-06 -0.91914775E-06  0.36468593E-05
 -0.80355743E-05  0.63752632E-05  0.22483646E-04 -0.72370318E-05 -0.97929850E-05
  0.41786095E-04 -0.10522633E-04 -0.45843429E-04  0.22692883E-04 -0.14377805E-05
  0.85028939E-06  0.29635774E-05 -0.17132469E-05  0.28092558E-05 -0.53474972E-05
 -0.20413170E-05 -0.90158434E-06  0.31949739E-05  0.67468480E-05  0.22748342E-05
  0.42463056E-05  0.38533869E-04 -0.60317256E-06  0.35039812E-05 -0.77969825E-05
 -0.20740591E-04  0.67278271E-05 -0.65939259E-06 -0.30424806E-05 -0.14545140E-05
 -0.71143539E-06 -0.21944859E-05  0.58233036E-05 -0.21393965E-05 -0.91236763E-06
  0.34260285E-05 -0.22449936E-04  0.11893427E-04  0.41539434E-06 -0.49234657E-04
 -0.91452547E-05  0.41594810E-04  0.12932698E-04  0.54887980E-05 -0.11367677E-04
  0.74200011E-06 -0.23513859E-05 -0.13278347E-05  0.90754294E-06 -0.20489022E-05
 -0.20534540E-05 -0.21686030E-05  0.13493812E-05 -0.11197460E-05 -0.19331343E-06
  0.11037151E-04 -0.13964021E-05 -0.12114375E-04  0.27924237E-04  0.19252010E-04
  0.22964546E-05  0.26983568E-05 -0.15918195E-04  0.13746035E-05  0.11608351E-05
  0.36509317E-04 -0.79213844E-06 -0.10441424E-05  0.14434240E-05  0.10327969E-06
 -0.42291021E-06 -0.94310377E-06 -0.18972487E-06  0.74162739E-06 -0.64403750E-06
  0.15978952E-05  0.49405570E-06 -0.25942301E-05  0.63254468E-06  0.11461190E-05
  0.82285142E-07  0.97764180E-06  0.86898354E-06 -0.93764751E-06  0.43239012E-06
 -0.55420310E-06 -0.39202779E-06 -0.40471285E-06 -0.56101356E-06 -0.19257571E-05
 -0.84064269E-06  0.17408037E-05 -0.40175714E-05  0.98676185E-06 -0.10746567E-05
  0.31984534E-05  0.37889655E-06  0.82683955E-06 -0.48210562E-06  0.99119785E-06
 -0.92433086E-06  0.11797159E-06  0.40543429E-06 -0.20580453E-06 -0.11687766E-05
 -0.12417001E-05  0.20688495E-06 -0.76652080E-06  0.11097380E-04 -0.17133769E-04
  0.22547461E-04 -0.23932330E-04  0.64458639E-07  0.97014608E-04  0.40663753E-05
 -0.35267184E-04  0.53524464E-04  0.85852402E-06  0.61232027E-06  0.48049131E-06
 -0.91126953E-06  0.58305109E-07  0.85449258E-06 -0.15877224E-06 -0.49023255E-06
  0.22371423E-06 -0.43011558E-05  0.91732593E-05 -0.37934458E-04 -0.20786201E-04
  0.16458321E-04 -0.59350534E-04 -0.14748999E-04  0.62727892E-05  0.74116655E-05

  0.20607528E-05  0.12691398E-05 -0.11448801E-05 -0.72361860E-06  0.15901161E-05
  0.14631802E-05 -0.52046652E-08 -0.12481103E-05 -0.47448773E-06  0.40753378E-06
  0.98624928E-06 -0.15006610E-05  0.76327690E-06  0.21685627E-05 -0.14532914E-05
  0.61036667E-06 -0.12176789E-05 -0.18164771E-06 -0.79567930E-05 -0.51311170E-05
  0.36390882E-05  0.58112242E-05  0.12713841E-04 -0.25416858E-05  0.85399563E-05
 -0.10390472E-04 -0.13488647E-04 -0.14406120E-06  0.24012866E-05 -0.15936979E-05
  0.26629807E-05 -0.39731435E-06  0.19792763E-05  0.61814213E-06  0.13254183E-05
  0.13382880E-06  0.15117446E-04  0.11053465E-04  0.73173896E-05  0.14269684E-04
 -0.13676676E-04 -0.50657595E-05 -0.28617542E-04 -0.74921101E-05  0.69634888E-05
 -0.98474087E-06  0.35411503E-06  0.95608802E-06 -0.43440952E-05  0.36417004E-05
  0.13678057E-05  0.17525542E-06  0.14003377E-05  0.37274542E-06 -0.11090102E-05
  0.14475743E-06  0.47407037E-06 -0.74479382E-06 -0.23999470E-06  0.13150009E-05
  0.56379669E-08  0.39283027E-06 -0.43298995E-06  0.11826633E-05  0.56643021E-08
 -0.42687798E-07  0.63712843E-06 -0.20233906E-06  0.65112736E-06 -0.44019414E-06
  0.75696104E-06 -0.21881279E-06  0.62392474E-06 -0.19740488E-05 -0.49761125E-06
 -0.58277119E-05  0.23467827E-05  0.12888505E-05 -0.31869300E-06 -0.27097838E-05
 -0.18658414E-06  0.73398653E-06 -0.57039833E-06  0.44840554E-07 -0.10524492E-07
  0.16447561E-05  0.15738542E-05 -0.19297774E-06  0.20155350E-05 -0.38720844E-06
  0.12245613E-04 -0.55997894E-05  0.76797620E-05 -0.10903658E-04  0.33484495E-05
 -0.13645253E-04  0.26774380E-05  0.66201192E-05 -0.57458812E-05 -0.22014998E-05
 -0.36795879E-05 -0.22576748E-05 -0.16737402E-05  0.14296521E-05  0.21385281E-05
 -0.83236760E-06 -0.30336242E-06  0.12549334E-05 -0.10824367E-05 -0.15681073E-04
 -0.35508404E-04  0.13402578E-04 -0.27097972E-05 -0.66594928E-05 -0.71835611E-05
 -0.16065151E-05 -0.70206415E-05 -0.21133271E-05 -0.39337570E-06 -0.39801882E-06
 -0.55267738E-06 -0.10126881E-05  0.21975686E-05 -0.81588150E-06  0.79620683E-06
 -0.11168034E-05  0.22083019E-06  0.62116142E-05 -0.43779695E-05  0.12326382E-04
  0.69311975E-05 -0.99092436E-05 -0.11472010E-04  0.51141458E-05 -0.42181833E-05
  0.19524211E-05  0.73918549E-06 -0.10980579E-05 -0.35555315E-05  0.31437227E-05
  0.34764772E-06  0.22537488E-05 -0.90075326E-06 -0.12076097E-05 -0.38575132E-04
 -0.68078380E-05  0.40045491E-05 -0.39284055E-04  0.22797932E-04  0.20805284E-04
  0.11251565E-04 -0.45718055E-05 -0.36704469E-05  0.58471576E-06 -0.24677078E-06
 -0.79213844E-06  0.37875243E-04 -0.16038765E-04 -0.12885872E-04 -0.12092275E-05
  0.21740234E-05 -0.92622416E-06 -0.21739841E-06 -0.20440914E-06 -0.99177138E-06
 -0.30543023E-05  0.11356633E-05  0.25926000E-05 -0.47461591E-06 -0.65078372E-06
  0.30601099E-05 -0.27035903E-06  0.42878839E-06 -0.11430318E-06  0.61152938E-06
  0.16575017E-05  0.31284815E-06 -0.60728255E-06  0.50439307E-06  0.13623041E-05
  0.25478062E-05 -0.48730275E-06  0.14452505E-05 -0.30480101E-05  0.16746715E-05
  0.20224577E-05  0.14009671E-05 -0.15800458E-05 -0.13729027E-05 -0.11611000E-05
  0.12663157E-05 -0.54057411E-06  0.32644653E-05  0.16612742E-05 -0.10707663E-05
 -0.11873897E-05  0.60443543E-06 -0.71586136E-06  0.33991500E-05 -0.18611698E-04
 -0.19249564E-04  0.27132385E-04  0.18593048E-04 -0.28053958E-04  0.66251920E-05
 -0.17821276E-04  0.35872755E-05  0.29744074E-06 -0.26721901E-06 -0.83937034E-06
  0.15083594E-05  0.31005966E-06  0.50161348E-06  0.18997802E-06  0.79782193E-06
  0.56333081E-06 -0.14551761E-04  0.27976864E-05  0.21479447E-04  0.52476374E-04
 -0.88982478E-05  0.35831582E-05  0.70160643E-05 -0.70261740E-05 -0.12205992E-04

  0.18178715E-06 -0.33126678E-05 -0.63519852E-06  0.16157469E-05 -0.25948499E-05
  0.13260032E-05  0.72015603E-06  0.12816383E-05  0.10970925E-05  0.21863644E-06
 -0.79926225E-06  0.30596735E-05  0.95920825E-06 -0.26265183E-05  0.21292485E-05
  0.15356733E-05 -0.73794617E-06  0.11491652E-05  0.10985456E-04  0.19602554E-04
  0.13277497E-04 -0.15693877E-04 -0.34141418E-05  0.30660975E-04  0.18166686E-04
  0.14987170E-04  0.14047626E-05 -0.50009037E-06 -0.19360056E-06 -0.21134767E-05
 -0.52391415E-06 -0.27724692E-05  0.13701826E-05 -0.19276173E-05 -0.27078947E-06
 -0.10407675E-05 -0.11562668E-04 -0.15741774E-04 -0.65873660E-05 -0.26166341E-04
  0.54521085E-04 -0.11549877E-05  0.74760834E-05 -0.24015557E-05  0.12795530E-04
 -0.47702647E-06 -0.18831712E-05 -0.30254839E-05  0.30610200E-05 -0.65284677E-05
 -0.36820191E-06  0.29374008E-05 -0.67228317E-06 -0.68883085E-06 -0.43284422E-06
 -0.20090898E-05 -0.18021011E-06 -0.44273962E-06  0.11005675E-05  0.45327203E-06
 -0.83506581E-06 -0.22330604E-06  0.17476188E-05  0.61131929E-06  0.63717116E-06
  0.11456969E-05  0.36869239E-06 -0.15274954E-05  0.99906153E-06 -0.72005064E-06
 -0.41615300E-06  0.13480105E-06 -0.12045788E-05  0.20095666E-05  0.13928389E-06
  0.27346817E-05 -0.40698132E-05  0.27327158E-05 -0.65409014E-06 -0.10266622E-06
 -0.35582364E-05  0.22093970E-05 -0.29492615E-05 -0.29737282E-05 -0.30355465E-06
 -0.12636302E-04  0.57578127E-05 -0.47217051E-05 -0.46945092E-06  0.14335190E-05
  0.25240212E-04 -0.27968211E-05 -0.21518477E-04 -0.11506914E-06  0.67426728E-04
 -0.23736803E-05 -0.13922018E-04  0.31752416E-05  0.11825310E-04 -0.42686331E-06
  0.10452554E-04  0.13310357E-06  0.70824373E-06 -0.66244601E-05  0.18998720E-05
  0.29046231E-05  0.87033485E-06 -0.45086862E-05  0.12523540E-04  0.63650978E-05
  0.39356303E-04 -0.35344039E-04  0.10977485E-04 -0.62511575E-05  0.25566465E-04
  0.30619741E-04  0.47167286E-05 -0.19112461E-05  0.58525500E-05 -0.34916698E-05
  0.27243783E-06  0.12813378E-05 -0.21522481E-05  0.33962137E-05 -0.21025779E-05
 -0.50517231E-05  0.18188088E-04 -0.24601858E-04 -0.13216997E-04  0.54006859E-04
 -0.84461901E-04  0.62398627E-06  0.15379398E-04 -0.30278494E-04  0.22214700E-05
 -0.41884686E-05 -0.59135143E-05  0.22691553E-05  0.31790115E-05 -0.69283210E-05
  0.42266032E-05 -0.61739738E-05  0.27981886E-05  0.72590735E-05  0.11118314E-04
 -0.82502944E-05  0.66948336E-05  0.16144462E-04 -0.83104926E-04  0.18808445E-04
 -0.13593208E-04  0.15940361E-04  0.39877452E-04 -0.16458381E-05 -0.39242179E-05
 -0.10441424E-05 -0.16038765E-04  0.65401667E-04 -0.14682009E-04  0.18427628E-05
 -0.14971738E-05  0.62497880E-06  0.11314520E-05 -0.30101366E-05  0.17059745E-05
  0.16629332E-05  0.14363033E-05 -0.13005705E-05  0.17739615E-05  0.26951560E-06
  0.10439812E-05  0.31831212E-06  0.34009835E-05 -0.58816507E-06  0.13199462E-05
 -0.48896194E-05  0.27274107E-05 -0.97936670E-07  0.12662898E-06  0.11554630E-05
 -0.98871687E-06  0.10727676E-05 -0.24484526E-06  0.27733564E-05 -0.54448512E-05
  0.19593221E-06 -0.57707276E-06 -0.42679669E-06  0.16416140E-05  0.29742296E-05
 -0.11691393E-05  0.57617965E-06 -0.19506709E-05  0.13472227E-05 -0.15428455E-05
  0.13204089E-05  0.84901041E-07  0.16880998E-05 -0.17410932E-04  0.49692561E-04
  0.31336221E-04  0.11482278E-05 -0.19076474E-04 -0.68167408E-04 -0.30761038E-05
  0.22294747E-04 -0.69058161E-04  0.67656009E-06  0.16285928E-05  0.35164430E-06
  0.47450420E-06 -0.36303099E-05  0.39296820E-06 -0.18314933E-05 -0.85700742E-07
 -0.81569325E-06  0.19996714E-04  0.10527959E-04  0.57726920E-05 -0.49246159E-04
 -0.30535599E-04  0.32117520E-04  0.11386071E-04 -0.51437580E-05  0.22302387E-04

 -0.24590185E-05  0.16131106E-07  0.26275790E-05  0.48952949E-06  0.87936461E-06
 -0.77856722E-06  0.13317007E-05  0.73825725E-06  0.65574559E-06 -0.57672493E-06
 -0.29456407E-06 -0.12227027E-06 -0.72869024E-06  0.20655692E-05 -0.46719999E-05
 -0.49202265E-06  0.10610540E-05  0.13196177E-05  0.33211874E-04  0.38791047E-05
  0.10831667E-04  0.49408808E-04 -0.28134429E-04 -0.32585749E-05 -0.33282028E-04
 -0.60913719E-05  0.14471491E-04  0.19460249E-06 -0.19371702E-05  0.27705728E-05
  0.10616523E-06  0.24090653E-05 -0.10338588E-05  0.13168640E-05 -0.98693358E-06
  0.63836403E-06 -0.12631081E-04 -0.24004987E-04 -0.45250225E-04  0.13352362E-04
  0.12453944E-05  0.21572711E-04  0.31803262E-04  0.20157580E-04  0.23218970E-04
 -0.31329159E-07  0.54635112E-06  0.33268201E-05  0.13430815E-05 -0.12640521E-05
 -0.17408281E-05 -0.20956920E-05  0.49666770E-06 -0.24415949E-06  0.35355487E-06
  0.82066553E-06  0.22840653E-05  0.15254788E-05  0.71506365E-06 -0.42086196E-05
  0.85547619E-06 -0.11012930E-05 -0.43779165E-06 -0.52930837E-06 -0.43756689E-06
 -0.18949155E-05  0.41392714E-06  0.21001621E-05  0.48985720E-06  0.99021442E-06
  0.11924957E-05 -0.90205926E-07  0.15785561E-05 -0.13011751E-05  0.17450796E-05
  0.91057984E-06  0.29808998E-05 -0.31124483E-05 -0.16446289E-05  0.27369625E-05
  0.20809967E-05 -0.10749281E-05  0.30393060E-05  0.94734103E-06  0.23065624E-05
  0.46610278E-05 -0.57102451E-05  0.79967941E-06 -0.10287664E-05 -0.22871937E-05
 -0.20966335E-04  0.65650815E-05 -0.22155043E-04  0.84457478E-05 -0.35347755E-04
  0.17984268E-04  0.16588133E-04 -0.11703807E-04 -0.18480998E-04  0.95119743E-06
 -0.15262003E-05  0.38490716E-05  0.24187096E-05  0.12138872E-05 -0.67011058E-05
 -0.53725994E-06 -0.19420957E-05 -0.94381173E-06 -0.11239853E-04  0.13963277E-04
  0.14230605E-05 -0.18969921E-04  0.10022956E-05  0.15296443E-04 -0.69131838E-05
 -0.11361378E-05 -0.24858888E-05  0.52637870E-06 -0.24082331E-05  0.32657070E-05
  0.17777657E-05 -0.68591058E-06 -0.24571328E-05 -0.61345112E-06  0.19951186E-05
  0.52703740E-05 -0.58171507E-05  0.60658497E-06  0.44729037E-04 -0.18331180E-04
  0.15700695E-06  0.28900785E-04 -0.10569692E-04  0.38615439E-04  0.12977336E-05
  0.70221387E-06  0.44251595E-05 -0.45337576E-06 -0.74437204E-06  0.43900857E-05
 -0.31280522E-05  0.40265617E-05 -0.36401787E-05 -0.26624607E-05  0.10951120E-04
 -0.75261840E-05 -0.54210307E-06  0.21418184E-04  0.35506173E-04 -0.23768098E-04
 -0.38469436E-05 -0.15297445E-04 -0.21069960E-04 -0.50917739E-06  0.11478675E-05
  0.14434240E-05 -0.12885872E-04 -0.14682009E-04  0.49323126E-04 -0.45649499E-06
  0.29017656E-05  0.11662628E-05 -0.33944259E-06  0.32242073E-05  0.71359080E-06
  0.20676379E-05 -0.26895998E-05 -0.23442080E-05 -0.22389975E-07  0.20361108E-06
 -0.54980040E-05  0.23360996E-06 -0.71538883E-06  0.31478227E-06  0.43787935E-06
  0.34056891E-05 -0.28878949E-05 -0.55717073E-06 -0.69929497E-06 -0.16831256E-05
 -0.13594934E-05 -0.22979694E-06 -0.24866738E-05  0.16942887E-05  0.18829893E-05
 -0.14347758E-05  0.53579650E-06  0.40809960E-06  0.74393739E-06 -0.13380412E-06
 -0.63750495E-06  0.82516494E-06 -0.16488289E-05 -0.57609273E-06  0.41865486E-06
  0.10350607E-05 -0.13963652E-05  0.13738358E-05  0.12210925E-05  0.12487464E-04
  0.20810250E-04 -0.23728566E-04 -0.29482057E-04  0.10306912E-03 -0.39266117E-05
  0.82131472E-05 -0.17688168E-04 -0.37897856E-06 -0.17846923E-05  0.82788660E-06
  0.53282558E-06  0.28296054E-05 -0.74875500E-07  0.10611791E-05  0.32128445E-06
 -0.77032956E-06 -0.15339026E-05 -0.14558729E-04 -0.16912547E-04  0.24737547E-04
  0.24221784E-04 -0.59040417E-04 -0.35986585E-05 -0.76825599E-05 -0.35339296E-04

  0.97577080E-06  0.49266574E-06 -0.38908324E-06 -0.14875159E-05 -0.33247010E-05
  0.15242755E-05  0.17099396E-06 -0.11948051E-05 -0.12445075E-05  0.11261238E-05
  0.16508491E-05  0.43872398E-06 -0.12475051E-05 -0.38781375E-05  0.18100484E-05
  0.17002165E-07  0.50236036E-07  0.48549156E-06  0.62366961E-06  0.28159319E-05
 -0.89004405E-05  0.15340195E-05 -0.27810939E-05 -0.77776459E-06  0.95478449E-05
  0.10870069E-04  0.70789119E-05  0.56082717E-06  0.22398541E-06 -0.21571217E-05
  0.42619746E-06  0.23186744E-05 -0.10073801E-05 -0.71725911E-06  0.32233123E-06
 -0.28705584E-06  0.69141234E-05 -0.31420204E-05  0.47641531E-05  0.12588658E-04
  0.11110304E-04  0.21253484E-05  0.10880786E-04  0.16113638E-04 -0.57895338E-06
 -0.18494069E-07 -0.14091658E-05  0.82334806E-06 -0.35379908E-06  0.16225238E-05
 -0.14276115E-05 -0.16634448E-05 -0.91113137E-08 -0.17193993E-06 -0.18162068E-06
 -0.46943162E-06 -0.34869294E-06  0.37102702E-06 -0.20300304E-07 -0.84831329E-06
 -0.16256350E-05  0.17023388E-06 -0.39241957E-06 -0.54930437E-06 -0.17340279E-06
  0.19756424E-07 -0.12788474E-05  0.12439170E-05 -0.25818984E-06 -0.12441938E-06
 -0.65839957E-06 -0.16027180E-07 -0.44519258E-06 -0.48871686E-06 -0.11674702E-05
 -0.21455931E-06 -0.90727819E-06 -0.72069479E-06 -0.18690670E-05 -0.16420888E-06
 -0.15295949E-05 -0.29105045E-06 -0.20654070E-05  0.96021272E-06 -0.32206220E-06
 -0.10977338E-05 -0.59210779E-06 -0.12440011E-05 -0.66506283E-06  0.94502466E-07
 -0.66149671E-05  0.30932839E-04 -0.64341294E-06  0.37879498E-05  0.29988116E-04
 -0.11077211E-06  0.17237353E-04  0.51684122E-06  0.28706799E-05 -0.89514187E-07
 -0.74128088E-06 -0.43608019E-07  0.44063352E-06 -0.32300987E-05 -0.29836291E-06
 -0.22430635E-05 -0.24528365E-06  0.74072800E-06  0.91737871E-05 -0.18346717E-04
 -0.48485918E-06 -0.48432882E-04  0.13027839E-04  0.22999549E-04 -0.15721822E-04
 -0.17287537E-05  0.34232715E-05 -0.20523255E-05 -0.18555301E-05 -0.15740311E-06
  0.15470690E-05  0.18254398E-05 -0.12486076E-05 -0.38609359E-06 -0.82335899E-06
 -0.57061063E-06  0.11319568E-04 -0.27725546E-04 -0.50629715E-05 -0.32170403E-05
 -0.28675843E-04  0.39493535E-05  0.27728223E-04  0.12028799E-04  0.10545324E-04
  0.48039229E-06 -0.38735631E-05  0.21339195E-05  0.14757480E-05 -0.90965260E-05
  0.38167155E-05  0.67340700E-06  0.11272946E-06  0.25864416E-05 -0.54038179E-06
 -0.96594536E-05  0.43261392E-05  0.52462069E-05 -0.67560850E-05 -0.39550165E-06
 -0.29186679E-04  0.13664950E-04  0.10913629E-04 -0.65678352E-06 -0.45430865E-06
  0.10327969E-06 -0.12092275E-05  0.18427628E-05 -0.45649499E-06  0.21288896E-04
 -0.53715267E-06  0.12898368E-05 -0.84665750E-06 -0.54420831E-06 -0.23158386E-06
  0.64613585E-06  0.15972167E-05 -0.16496095E-06 -0.24312991E-08  0.19878100E-05
  0.19918992E-07  0.90405682E-06 -0.80058370E-06 -0.20993860E-06 -0.12638757E-06
 -0.43747887E-06 -0.74463705E-07 -0.42123248E-07  0.30352507E-06 -0.69400894E-06
 -0.81571542E-06 -0.71327641E-06 -0.12548634E-05 -0.65393252E-06  0.15370901E-05
  0.26128937E-06 -0.27219536E-05 -0.48752954E-06 -0.73229659E-06  0.94950249E-06
  0.10660531E-05 -0.91948924E-06  0.69671509E-06 -0.11497103E-05  0.60853503E-06
  0.29247021E-06  0.22156316E-05  0.97103675E-07 -0.16894924E-04 -0.54298999E-06
 -0.45721030E-05 -0.62430552E-05 -0.31541350E-05  0.81560569E-05  0.15654692E-04
  0.12986135E-04 -0.13992475E-04  0.47336401E-06  0.15228937E-05 -0.68189518E-07
  0.80823901E-06  0.20280715E-06 -0.53113942E-06 -0.68861059E-06 -0.56144110E-06
 -0.12298108E-05 -0.11759985E-04 -0.57480313E-05 -0.15181717E-04 -0.16130740E-04
  0.81111919E-05  0.37039675E-05  0.38476256E-05  0.63324584E-05  0.39960190E-05

 -0.14313420E-06  0.79633173E-07 -0.18390278E-05 -0.42476844E-06  0.72473628E-06
  0.32133740E-06  0.29699400E-06 -0.91891087E-07  0.38116834E-06 -0.60545751E-06
  0.70780806E-06  0.55044110E-06 -0.13929630E-05 -0.11483079E-06  0.48874179E-06
  0.82923310E-07 -0.15479225E-05  0.14167803E-05  0.72760572E-05  0.12912024E-04
  0.12404821E-04 -0.14981881E-04  0.80355411E-05  0.10756079E-04  0.60410784E-06
  0.18628312E-04 -0.70558491E-05 -0.40321280E-06 -0.11877115E-05 -0.19480064E-06
  0.16592162E-05 -0.53908356E-06 -0.10659235E-05  0.33588421E-06  0.12218669E-05
 -0.12848545E-06 -0.15125650E-04 -0.96306505E-05 -0.97880802E-05 -0.14550539E-05
  0.86401831E-06  0.61492180E-06  0.13660664E-04  0.82608304E-07 -0.66565309E-05
  0.18005636E-05  0.10987759E-05  0.10519850E-06  0.15975391E-05 -0.13838592E-05
  0.54598998E-06 -0.21075521E-06 -0.23384991E-05  0.50456171E-07  0.16073871E-05
  0.17148470E-05  0.66994464E-07 -0.14786778E-06  0.18056298E-06 -0.11620202E-05
  0.27170936E-07 -0.19636979E-05 -0.16683388E-06 -0.66168646E-06 -0.37850033E-06
  0.26362718E-06  0.13354260E-05 -0.56127025E-06  0.89757905E-06 -0.96618608E-07
 -0.76455971E-08  0.56436220E-06 -0.58587185E-07 -0.51384917E-06  0.28305016E-05
 -0.28059069E-05  0.16633155E-05  0.30646811E-05 -0.46745727E-06 -0.23342998E-05
 -0.19828208E-05  0.13624681E-05  0.76096966E-06 -0.12744301E-05  0.17716660E-05
 -0.46581271E-06 -0.86979363E-06  0.11736593E-05 -0.60997011E-06 -0.16709269E-05
 -0.59577459E-05  0.11458708E-05 -0.17649807E-04 -0.11685337E-05  0.82597452E-05
 -0.19930472E-04 -0.39290021E-05 -0.29622435E-05  0.43581892E-05  0.32831674E-06
 -0.35223753E-06  0.74829065E-06 -0.61533527E-06  0.43912423E-06 -0.11371979E-05
 -0.14895817E-05 -0.23658622E-05  0.10360335E-06 -0.77519656E-05  0.75641016E-05
 -0.75972833E-05 -0.70032402E-05  0.27455650E-05  0.20452002E-04 -0.88339911E-05
 -0.24756455E-04  0.44849835E-05 -0.47103047E-06 -0.19425223E-05 -0.15762479E-05
  0.11109276E-05 -0.10518434E-05 -0.40927781E-06 -0.73750999E-06  0.62920272E-07
 -0.27791399E-06  0.14282540E-04 -0.61520637E-05  0.38062654E-05  0.93095716E-05
 -0.12679010E-04  0.39107439E-04 -0.92185593E-05 -0.16850127E-06 -0.82814978E-06
 -0.10479696E-05  0.52074808E-06  0.69719903E-07 -0.13624292E-05  0.28971494E-05
 -0.24001946E-05  0.14092418E-05 -0.32711354E-05  0.39883579E-05  0.75135713E-05
 -0.79771905E-05 -0.92131395E-05  0.11570289E-06  0.12168726E-04 -0.17844661E-04
 -0.10624278E-05 -0.43358762E-05  0.53314996E-05  0.24101541E-06  0.59417179E-06
 -0.42291021E-06  0.21740234E-05 -0.14971738E-05  0.29017656E-05 -0.53715267E-06
  0.19644289E-04  0.10802356E-05 -0.44532843E-06  0.10095369E-05 -0.30706338E-06
 -0.15870248E-06  0.40186524E-06 -0.63770575E-06  0.12982424E-05 -0.15422607E-05
 -0.20883775E-06 -0.10424895E-05 -0.24307929E-06  0.29559935E-06  0.97470877E-06
  0.98577221E-07 -0.12969265E-05  0.11922630E-07 -0.14602881E-06 -0.96273679E-06
  0.66204497E-07  0.28870119E-06 -0.47713399E-06 -0.16196139E-05 -0.81302920E-06
  0.23406438E-06 -0.89417223E-06  0.45706809E-06  0.16151556E-05  0.15520090E-05
  0.83412092E-06 -0.15731338E-06 -0.47174839E-06 -0.16027312E-06 -0.41171436E-06
  0.20986115E-06 -0.61766308E-06  0.30104049E-06 -0.10460999E-04  0.10377699E-04
  0.29830291E-04 -0.45405240E-05 -0.10105268E-04  0.61781055E-04 -0.69862700E-05
 -0.18583341E-04 -0.21310070E-05 -0.34795970E-06  0.33786241E-06 -0.21461531E-06
  0.71740964E-06  0.74901324E-07  0.25590679E-06 -0.51718615E-06  0.20756208E-06
 -0.94149815E-06 -0.37066387E-05 -0.41113401E-05 -0.21462911E-04 -0.14984074E-04
  0.35814713E-05 -0.63976749E-06 -0.58004445E-06 -0.60378723E-05  0.51214407E-05

  0.32541456E-06  0.44075721E-06 -0.50895062E-06 -0.67614005E-06 -0.84624590E-08
 -0.91275008E-06 -0.11245154E-05 -0.41571980E-06  0.69314970E-06  0.22261368E-06
 -0.20743760E-05  0.44991090E-06  0.78449098E-07 -0.37317717E-06  0.86100826E-06
 -0.65512727E-06 -0.22123297E-05  0.89901193E-06 -0.10642511E-04 -0.15781394E-04
 -0.24012309E-05 -0.25946791E-04  0.26629306E-04 -0.25539077E-05  0.44862975E-05
  0.87795923E-05  0.17206967E-04 -0.15698667E-05 -0.83060061E-06 -0.66417379E-06
  0.33508958E-06  0.24056736E-06  0.47392303E-07  0.91911604E-06 -0.28526172E-07
  0.62482977E-06  0.68488080E-05  0.79695934E-05  0.14570066E-04  0.54689388E-05
 -0.13207158E-05  0.19609221E-04 -0.67423180E-05  0.25409406E-04  0.99099759E-05
  0.50337045E-06 -0.57866187E-06  0.31384279E-06  0.79334027E-06 -0.23689139E-05
  0.17577814E-05 -0.11028337E-05 -0.85289705E-06 -0.31827177E-05  0.63191725E-06
  0.15800851E-05  0.17968888E-05  0.21260623E-06  0.10155725E-06 -0.16998655E-05
 -0.39065927E-06 -0.44054944E-06 -0.17904285E-06 -0.21511816E-06  0.51073198E-06
 -0.33614476E-06 -0.53221718E-06  0.11086162E-05 -0.28405068E-06 -0.48714653E-06
 -0.92018451E-06 -0.14896184E-05 -0.81627461E-06 -0.85290881E-06 -0.12044259E-05
 -0.14415877E-05 -0.99440946E-06  0.39514039E-05 -0.10177106E-05 -0.17615154E-05
  0.12784231E-06  0.63554552E-06 -0.55351305E-06 -0.35687809E-06  0.84043712E-06
 -0.62162378E-06 -0.26058143E-05  0.40395653E-06 -0.28158480E-06 -0.44261032E-05
 -0.33184088E-06 -0.24671791E-05 -0.81654111E-05  0.49912279E-05 -0.19134021E-05
 -0.27366493E-05  0.63686723E-05  0.20254194E-04 -0.10548439E-05  0.18581454E-06
 -0.26471850E-05 -0.27127170E-05  0.20342494E-07 -0.27900385E-05 -0.24849393E-06
  0.42810715E-06 -0.63953678E-06 -0.11849382E-05 -0.33984108E-05 -0.17376380E-04
 -0.91557920E-05  0.30857576E-04 -0.11726700E-04 -0.80341958E-05  0.98061336E-05
 -0.35213299E-05 -0.26471108E-04 -0.28046182E-06 -0.17529482E-06 -0.16352620E-05
 -0.84387355E-06  0.27382408E-05 -0.21579617E-05 -0.22508356E-06  0.80732575E-06
 -0.24060216E-05 -0.89221987E-05 -0.86603740E-05  0.14344154E-05  0.19701368E-04
 -0.78814549E-05  0.80715798E-05  0.54573926E-05 -0.46438447E-05  0.15001029E-04
  0.11772891E-05  0.52619756E-06 -0.76216877E-06 -0.96000287E-06  0.49101768E-05
 -0.28160942E-06  0.21500233E-05  0.21910642E-05  0.36509243E-05  0.10371563E-05
  0.27995683E-04 -0.17275565E-04  0.11224142E-05 -0.76140960E-05  0.75928683E-05
 -0.12433381E-05 -0.61970394E-05 -0.36286592E-04  0.94489136E-07  0.11754989E-05
 -0.94310377E-06 -0.92622416E-06  0.62497880E-06  0.11662628E-05  0.12898368E-05
  0.10802356E-05  0.30080756E-04 -0.94396955E-07  0.34261723E-05  0.30715354E-05
  0.29875298E-05 -0.14520957E-06 -0.39128460E-05  0.29543965E-06  0.71183213E-06
 -0.36007746E-05  0.37516049E-06 -0.86385611E-06  0.57615874E-06  0.13377131E-05
 -0.50295951E-07 -0.29655365E-05 -0.98622955E-07 -0.10950128E-07 -0.13590155E-05
 -0.11751587E-05  0.14987731E-05  0.39877579E-06 -0.94849600E-06 -0.47309953E-06
  0.62592319E-06 -0.16437410E-05  0.31172660E-06 -0.15571978E-05 -0.99720775E-06
 -0.36861896E-05 -0.20885991E-05  0.10458594E-05 -0.18158973E-05  0.29052581E-05
 -0.34509644E-06  0.79561766E-06 -0.14436380E-05 -0.96068993E-05 -0.22272290E-04
 -0.40601506E-04 -0.51814454E-05 -0.62849458E-05 -0.80975662E-04  0.74375249E-06
  0.28008001E-04 -0.80255155E-05  0.38989315E-07 -0.88188105E-06  0.59822905E-06
 -0.64127430E-06 -0.52710894E-06  0.89711875E-06 -0.18887390E-05  0.10098776E-07
 -0.22523186E-06 -0.20610167E-04 -0.72003000E-05 -0.13836534E-04  0.12519599E-05
 -0.17015726E-04  0.10064701E-04 -0.97643609E-05 -0.22782157E-05  0.71601703E-05

 -0.21797666E-05 -0.54238899E-06 -0.23958341E-06 -0.26331745E-06  0.19863032E-06
  0.48350616E-07  0.12361986E-05  0.85346529E-06  0.90972702E-06  0.56677795E-06
 -0.65975839E-06  0.17729048E-05  0.15163049E-05 -0.15101081E-05 -0.16612835E-06
  0.15665879E-05  0.10220827E-05 -0.11915558E-05 -0.20877766E-04 -0.32676685E-06
 -0.18548684E-05 -0.84352485E-04 -0.41317071E-05  0.26393980E-04 -0.40916570E-05
  0.91598141E-05  0.60349222E-05  0.77124222E-06 -0.82660601E-06  0.19572091E-05
 -0.11448266E-05 -0.20494144E-06 -0.98989429E-06 -0.12954304E-06 -0.47934734E-06
  0.84158002E-06 -0.17154262E-05  0.85764741E-05  0.21701358E-05  0.10454605E-05
  0.42649426E-05  0.12251741E-04  0.13961540E-04  0.52045964E-05 -0.87981920E-05
 -0.15185147E-05 -0.59790660E-06 -0.11040290E-05  0.17299136E-05 -0.12037952E-06
  0.15702199E-06  0.18746716E-06  0.48790039E-06 -0.35360108E-08  0.23879546E-05
  0.14234314E-05 -0.21622311E-06 -0.22477864E-05  0.37329796E-05 -0.93819880E-06
 -0.35731524E-06  0.64680884E-06  0.18881531E-05 -0.10486007E-05 -0.83470590E-07
 -0.48770773E-06 -0.20291572E-06 -0.13367285E-06  0.43245406E-06  0.32028055E-06
  0.24809983E-06 -0.58988770E-06  0.59707125E-06 -0.30485926E-06  0.92371818E-06
 -0.10921485E-05  0.22064650E-05  0.40587709E-06  0.97601930E-06 -0.31495134E-06
  0.44143935E-06  0.11927052E-05 -0.52237598E-06 -0.10037149E-05  0.15970609E-05
 -0.22785015E-05  0.41531570E-06  0.18201742E-06 -0.99319492E-06 -0.59577592E-06
  0.42388901E-05 -0.15869529E-04 -0.66114702E-05  0.12468124E-04 -0.17366231E-04
 -0.75919889E-05  0.16832104E-04  0.28189115E-05  0.14812926E-04 -0.24260748E-05
 -0.37861215E-06  0.47805911E-06 -0.71813636E-06  0.46444734E-06  0.10706814E-05
 -0.10436763E-05  0.11310739E-05 -0.89639134E-06 -0.10932558E-04 -0.29216143E-05
 -0.13609551E-04 -0.40960652E-04  0.17774433E-04 -0.14470631E-04  0.11704279E-04
 -0.14913136E-04 -0.57366894E-08  0.17774726E-05  0.25085202E-05 -0.93972755E-06
  0.28721280E-05 -0.87497707E-07 -0.99348908E-06  0.15452776E-05 -0.10634064E-05
  0.22724789E-06  0.51936145E-05  0.26020581E-04 -0.47015879E-05 -0.16479412E-04
  0.11282411E-04  0.89676318E-06  0.17433040E-05  0.81202870E-06  0.21518743E-05
 -0.18990312E-05  0.21699685E-05 -0.20701773E-05  0.92779389E-06 -0.10266459E-05
 -0.85465209E-06 -0.62206348E-06 -0.11084756E-06 -0.14858714E-05 -0.46304036E-05
  0.52836774E-05 -0.13416277E-04  0.21242441E-05 -0.17876594E-04 -0.43302066E-05
 -0.87228453E-05 -0.61389238E-05  0.15615585E-04 -0.86688584E-06 -0.76417081E-07
 -0.18972487E-06 -0.21739841E-06  0.11314520E-05 -0.33944259E-06 -0.84665750E-06
 -0.44532843E-06 -0.94396955E-07  0.24481529E-04  0.18416676E-05  0.43833514E-05
  0.16755892E-05 -0.63724254E-06 -0.19020984E-05  0.98482584E-06 -0.67334372E-06
 -0.29125371E-07 -0.12901044E-05 -0.69706075E-06 -0.22441475E-05 -0.22753136E-05
  0.48607169E-06  0.22011487E-05 -0.94235552E-06 -0.43292242E-07 -0.12705110E-05
  0.13374940E-06  0.34526641E-05  0.59489936E-06  0.14828254E-05 -0.50095147E-05
  0.43889485E-06 -0.14312869E-05  0.91328699E-07  0.16985604E-05 -0.10359602E-05
 -0.49289327E-06 -0.29557167E-06  0.58025362E-06  0.85979541E-06 -0.14609390E-05
  0.64568163E-07 -0.11184496E-05 -0.83166063E-06 -0.23831990E-05 -0.58397422E-05
  0.16693734E-04  0.18590673E-04 -0.20984009E-05 -0.90526925E-05 -0.19756358E-04
 -0.25550819E-04  0.17712238E-04 -0.22960656E-06  0.36884647E-06 -0.21921728E-07
  0.58496507E-06 -0.70246163E-06 -0.15913112E-06 -0.80914139E-07  0.81326716E-06
  0.91345407E-06  0.66025427E-05 -0.18769104E-05 -0.37645393E-06  0.17492634E-04
 -0.30438085E-05 -0.26592706E-04 -0.17068363E-04 -0.65477620E-05  0.27739734E-05

  0.24408173E-05  0.63606933E-06 -0.33722547E-06 -0.12410444E-06  0.78316662E-06
 -0.52762818E-06  0.68954743E-06 -0.17239850E-06 -0.23649399E-05  0.51150842E-06
 -0.92890126E-06 -0.21735927E-05  0.12153701E-05 -0.80168397E-06 -0.72869893E-06
  0.70971678E-06  0.76015191E-06 -0.94178935E-07 -0.39182200E-04 -0.52846060E-05
 -0.54136855E-06  0.24199203E-04 -0.12672807E-05 -0.15473200E-04  0.20996884E-04
 -0.10947387E-04  0.87685120E-05 -0.76580422E-06 -0.11403526E-06  0.10880470E-05
 -0.19003524E-05  0.33743160E-05 -0.91210865E-06  0.35912984E-05  0.35649976E-06
  0.31155386E-05  0.33959268E-05 -0.80360142E-05  0.16335073E-04  0.88204176E-05
  0.79854208E-05 -0.29620233E-05 -0.39171705E-05 -0.62134067E-06  0.22429035E-04
  0.92713011E-06 -0.33726992E-05  0.12698395E-05  0.10341132E-05 -0.85009373E-06
  0.72635317E-06 -0.19289534E-05  0.84488820E-06 -0.91107638E-06 -0.10400299E-06
  0.10994223E-05  0.12563595E-05 -0.70963602E-06 -0.39690502E-05  0.53503873E-06
  0.25168653E-06  0.12979512E-05 -0.71324583E-06  0.14738575E-06 -0.41076912E-06
 -0.73045214E-06  0.13035344E-05 -0.32388876E-05  0.38179214E-06  0.92799130E-06
 -0.30927526E-06 -0.16595964E-06 -0.50813600E-06 -0.88879387E-06 -0.57409538E-06
 -0.11688271E-05  0.87694659E-05 -0.48790165E-06  0.69320372E-06 -0.74952824E-06
 -0.21843080E-05  0.13847042E-05  0.20940940E-05 -0.76206508E-06 -0.38974640E-06
  0.50479604E-06 -0.10995443E-05 -0.20554208E-06 -0.10774071E-05 -0.35450809E-05
  0.14280043E-04 -0.35886606E-04 -0.82192543E-07  0.26123229E-04 -0.50010589E-04
 -0.26361227E-04  0.25235924E-04  0.15113125E-04 -0.31315166E-04  0.11225778E-05
 -0.34537858E-05  0.38256405E-06  0.21688388E-05 -0.59732096E-05 -0.21322113E-06
  0.61246324E-06 -0.70927977E-06 -0.86760840E-07 -0.21094379E-04  0.60112750E-04
  0.28421136E-04  0.44536699E-04 -0.34213077E-04 -0.33231407E-04  0.51423618E-05
 -0.16248421E-04 -0.54071765E-06  0.42621331E-05  0.19361252E-05  0.14450645E-05
  0.30516781E-06 -0.11652961E-05 -0.41898982E-06 -0.11976319E-05  0.11889701E-05
  0.39060830E-06 -0.17479238E-04  0.40800123E-04 -0.13048981E-04 -0.19031154E-04
  0.13628781E-03 -0.86488041E-05 -0.46260577E-04  0.34497820E-05  0.10780083E-04
  0.65490730E-06 -0.40990585E-05  0.89376434E-06 -0.19011049E-05  0.18826222E-05
  0.19300650E-06  0.16583940E-05 -0.10491241E-05  0.16744198E-05 -0.11473164E-04
 -0.32410602E-04  0.21352086E-05  0.74083668E-06  0.32689026E-05 -0.82316465E-05
  0.20608180E-05  0.62388194E-05 -0.10309882E-04 -0.10359636E-05  0.14208844E-05
  0.74162739E-06 -0.20440914E-06 -0.30101366E-05  0.32242073E-05 -0.54420831E-06
  0.10095369E-05  0.34261723E-05  0.18416676E-05  0.40215179E-04  0.26252315E-05
 -0.18046799E-06 -0.30368908E-06 -0.22270945E-05  0.48229947E-06 -0.53536475E-06
 -0.38253815E-06 -0.11841033E-06  0.13767956E-07  0.13660979E-06 -0.82985834E-06
  0.22024692E-05 -0.11497684E-05 -0.43023802E-06 -0.96484487E-06 -0.21990542E-06
  0.36524128E-05  0.14862699E-05  0.13032021E-05 -0.65112983E-06 -0.39234886E-05
  0.25657640E-05 -0.35367528E-05  0.12397872E-05  0.16166658E-05 -0.21044892E-06
  0.11938069E-05  0.43054261E-06  0.15067786E-05 -0.14322254E-06  0.13729443E-05
 -0.38706258E-06  0.66753964E-06  0.78205861E-06  0.65297757E-05  0.10150526E-04
 -0.41815682E-04  0.18014144E-04 -0.11591051E-04  0.52845881E-04 -0.17150183E-04
 -0.20372370E-04  0.26001444E-04  0.18818724E-06 -0.19739293E-05  0.30220189E-06
 -0.25527285E-05  0.33895769E-05  0.20538629E-06 -0.13812487E-05 -0.55940727E-06
 -0.71722709E-06 -0.36812793E-04 -0.25066305E-04  0.46991525E-04  0.42327786E-05
 -0.16528366E-04 -0.26080374E-04 -0.11358797E-04 -0.32789109E-05  0.70415226E-05

 -0.25482394E-06  0.95974358E-06 -0.44397921E-05  0.22468693E-05  0.11089638E-05
 -0.54223162E-05  0.52774600E-06  0.87064907E-06  0.20166063E-05  0.39336413E-06
 -0.14568517E-06  0.75466605E-06  0.86903127E-06 -0.31921673E-05  0.30659384E-05
 -0.27169590E-06  0.33282161E-06 -0.46011301E-06 -0.19134226E-04 -0.26997000E-04
 -0.43333386E-05 -0.38345112E-04 -0.43411273E-04  0.67330807E-04 -0.89700694E-05
 -0.73005377E-05 -0.66007110E-05  0.92062196E-06  0.28166570E-06  0.24420742E-06
 -0.12072383E-05  0.31800869E-06 -0.16995560E-06  0.77913472E-06 -0.20669380E-05
 -0.87915112E-06 -0.48033590E-05  0.22112609E-04  0.82887255E-06 -0.49224859E-05
 -0.11902524E-04  0.31485979E-04 -0.15042002E-04  0.23619323E-04  0.18971684E-06
 -0.17474438E-05 -0.64220260E-06 -0.90874902E-06  0.66562238E-06 -0.41017270E-06
  0.12190327E-05  0.90187652E-07  0.14526409E-05 -0.20098925E-05  0.49339603E-06
  0.58908548E-06  0.41373298E-05  0.83568787E-07  0.15059582E-05  0.49599475E-06
  0.18175955E-05  0.10795723E-06  0.48604346E-07 -0.88985313E-06 -0.55602390E-06
  0.32047411E-06 -0.17269620E-05  0.94374219E-06  0.25829516E-05 -0.60929469E-06
 -0.81074764E-06  0.78747358E-06  0.40241727E-06 -0.21352536E-05 -0.12868253E-05
 -0.76969258E-06  0.68751368E-06  0.14085113E-05  0.17847225E-06 -0.41378845E-08
 -0.27035797E-06 -0.21996488E-06  0.14056922E-05 -0.53427780E-05 -0.51481876E-06
 -0.95020455E-06 -0.54435910E-06  0.78111518E-06  0.29938368E-05 -0.11302705E-05
  0.17914837E-04 -0.23598242E-04 -0.48321226E-05  0.57898970E-05 -0.22189376E-04
  0.13232806E-04  0.12072500E-04  0.94948405E-05 -0.95312442E-05  0.72309396E-07
 -0.22226410E-05 -0.33844650E-05 -0.59260740E-06 -0.14798830E-05  0.28640651E-05
 -0.15359655E-06  0.71074426E-06  0.17825930E-05 -0.15464089E-04 -0.29036728E-04
 -0.29173554E-04  0.73693731E-05  0.14013825E-04 -0.12996908E-03  0.50238002E-05
  0.17005573E-04 -0.15420780E-04  0.95038905E-06 -0.19546492E-05 -0.14215145E-06
  0.96064401E-07 -0.62830661E-06 -0.29025748E-05 -0.51546627E-06  0.54830623E-07
  0.21603995E-05 -0.19591536E-04  0.34591988E-04 -0.65140610E-05 -0.19412629E-05
  0.30737460E-04 -0.56519958E-04 -0.79642535E-05  0.34286903E-04 -0.17471292E-04
 -0.85973145E-06  0.56722192E-06 -0.58031324E-06 -0.14934807E-05 -0.11119277E-05
  0.18563706E-05 -0.20397543E-05 -0.12050431E-05  0.39116594E-06 -0.19407589E-04
 -0.17365672E-04 -0.81655412E-05  0.12569193E-04  0.25724776E-05 -0.23224932E-04
  0.72179636E-05  0.97118671E-06 -0.23662661E-05 -0.59982954E-06  0.37613840E-05
 -0.64403750E-06 -0.99177138E-06  0.17059745E-05  0.71359080E-06 -0.23158386E-06
 -0.30706338E-06  0.30715354E-05  0.43833514E-05  0.26252315E-05  0.39807620E-04
  0.20768723E-06 -0.84099749E-06 -0.18666823E-05  0.34967901E-06 -0.10972487E-05
 -0.13453449E-05 -0.25612596E-05 -0.89839165E-06 -0.13368576E-05 -0.27059012E-06
  0.19564694E-05 -0.94881090E-07 -0.20015900E-05  0.23752211E-05  0.44441413E-06
  0.14689742E-05  0.49574417E-06  0.12546758E-05  0.19071281E-06  0.13245927E-05
 -0.24954847E-06  0.15250283E-05 -0.14424013E-05 -0.85863456E-07 -0.17390057E-05
 -0.27308647E-05 -0.80499640E-06 -0.32969834E-06  0.18154667E-05  0.37661714E-06
  0.36896130E-06 -0.19776219E-05 -0.10004179E-05  0.12612810E-04 -0.21799266E-04
 -0.25180420E-05 -0.97805239E-05  0.29034147E-04 -0.13580889E-03  0.14414041E-04
  0.33541187E-04 -0.15654299E-04  0.71922187E-06 -0.92127824E-06 -0.11109094E-05
  0.15614325E-05 -0.51799146E-06  0.20860759E-06 -0.13199118E-06 -0.37019950E-07
  0.42333077E-06 -0.16668470E-05  0.36851069E-05  0.49724346E-04  0.48046732E-04
 -0.25582488E-05 -0.51281658E-04 -0.62568632E-05 -0.34691916E-04 -0.24483441E-04

  0.11506884E-05 -0.76557340E-07 -0.77707296E-06 -0.39423715E-05  0.28066101E-05
  0.17905435E-05  0.28637615E-08 -0.69866324E-06  0.18275834E-05 -0.14195711E-05
  0.51216035E-06  0.13672595E-05 -0.25696347E-05  0.32959939E-06  0.21105896E-05
  0.81435467E-06  0.90455997E-06 -0.51234649E-06  0.66667977E-05  0.19864393E-04
  0.89752162E-05  0.28053431E-04 -0.30440714E-04 -0.46909039E-05 -0.12873017E-04
  0.65708382E-05  0.39295037E-06  0.13955433E-05  0.10376220E-05 -0.12694686E-05
  0.11393760E-05 -0.17347913E-08  0.78454979E-08 -0.78520396E-07  0.50784551E-06
  0.59586452E-06 -0.66739415E-05  0.12768347E-04 -0.39074760E-05 -0.14563126E-04
  0.15258704E-04  0.19158668E-05  0.36670211E-05  0.12100141E-04 -0.20913144E-05
 -0.11084873E-05  0.21758751E-07  0.64983696E-06 -0.22923171E-05  0.23378829E-05
  0.26168118E-05  0.81730105E-06 -0.78432917E-06  0.96717561E-06 -0.48553479E-06
  0.15765228E-05 -0.12377086E-05 -0.13639882E-05  0.20938379E-05  0.44959566E-07
 -0.14670731E-05  0.18133999E-06  0.54242457E-06 -0.61099830E-06 -0.80519394E-06
  0.39356458E-07  0.21517602E-05  0.27247289E-06  0.50066456E-06 -0.13127458E-05
 -0.10761844E-06 -0.19838416E-07 -0.11050265E-05  0.14255397E-05  0.93357298E-06
 -0.22339303E-06  0.28155342E-05  0.94753259E-06  0.54964031E-06  0.72581414E-07
  0.18016057E-06  0.17533905E-05 -0.16346553E-06  0.38578468E-06 -0.38495238E-05
 -0.42010435E-06  0.97887136E-06 -0.12277961E-05 -0.21053112E-06 -0.22790666E-05
 -0.82741579E-05 -0.63992854E-05 -0.11961008E-04  0.10439131E-04 -0.49939330E-07
 -0.16231175E-05 -0.25347583E-06  0.66260715E-05 -0.28264562E-05  0.13270526E-06
 -0.35579265E-05 -0.15105518E-05 -0.51900733E-05  0.13232471E-05  0.10984415E-05
 -0.10653219E-05 -0.16046221E-06  0.20260451E-05  0.25048051E-05 -0.10953321E-04
 -0.33113680E-04  0.92506100E-04  0.16252560E-04 -0.41546991E-04 -0.23277957E-05
  0.50020546E-05 -0.20165610E-04  0.31984368E-05 -0.82658821E-07 -0.52748914E-06
  0.24888098E-05  0.15891306E-05 -0.13164874E-05 -0.30609056E-06 -0.66181296E-06
  0.45606035E-06 -0.20387096E-04  0.11915161E-04  0.52559926E-05 -0.26578225E-05
  0.16574138E-04  0.21466220E-05 -0.27155842E-04  0.52274406E-05 -0.13628088E-04
 -0.19036368E-05  0.79701683E-06  0.20725688E-06 -0.19787453E-05  0.18936777E-05
  0.20307101E-05  0.13029546E-05 -0.12577495E-05  0.63646669E-06  0.48028210E-06
  0.12508008E-04  0.65530627E-05 -0.31246144E-05 -0.96340503E-05 -0.76350909E-06
 -0.66224909E-05  0.29263634E-05  0.65342995E-05 -0.68088275E-07  0.10975943E-05
  0.15978952E-05 -0.30543023E-05  0.16629332E-05  0.20676379E-05  0.64613585E-06
 -0.15870248E-06  0.29875298E-05  0.16755892E-05 -0.18046799E-06  0.20768723E-06
  0.42842658E-04 -0.19351697E-04 -0.14158743E-04 -0.34002418E-06  0.31635653E-05
 -0.95536902E-06  0.80601584E-06  0.99080249E-06 -0.67235389E-06 -0.11077145E-05
  0.10835883E-05  0.10500074E-05  0.49878200E-06 -0.18333928E-05 -0.15037936E-05
 -0.86603414E-06 -0.77492607E-06  0.23208471E-06 -0.41284005E-05  0.92568229E-06
  0.22658255E-05  0.27108081E-05  0.42662870E-06  0.71723675E-06 -0.15630978E-05
 -0.35711350E-06  0.53176931E-06 -0.36338878E-05  0.24664083E-05  0.12669035E-05
  0.72706049E-06  0.99038401E-06 -0.72085616E-06 -0.18573458E-04  0.70170788E-05
  0.11568371E-04  0.35216689E-04 -0.23882145E-04 -0.32156436E-04 -0.16506532E-04
 -0.65969635E-05 -0.22702386E-04  0.22210369E-06 -0.30756007E-06 -0.45536283E-06
 -0.26864918E-05  0.19596681E-05  0.44821251E-06 -0.57355107E-06 -0.39491424E-06
  0.73492410E-07  0.80017318E-05 -0.11452372E-06 -0.18269530E-04  0.13420323E-05
  0.87441754E-05 -0.95167848E-05 -0.78939712E-05 -0.56240455E-05 -0.21065280E-04

  0.92095139E-06 -0.31947124E-05  0.10648510E-05  0.27141845E-05 -0.82126935E-05
  0.30580025E-05 -0.52146641E-06 -0.10597414E-05 -0.48836436E-05 -0.17908952E-05
  0.32449737E-05 -0.12688828E-05 -0.11550563E-06  0.16311552E-07  0.26741252E-05
 -0.20431678E-05 -0.26093283E-05  0.20467228E-05  0.48820408E-04 -0.25559367E-04
  0.19659999E-04 -0.56103812E-05  0.89248612E-05  0.20004266E-04 -0.84131794E-05
  0.63447647E-05 -0.79730424E-05 -0.17092899E-05 -0.47146045E-05  0.15892821E-05
  0.10524218E-05  0.15081614E-05  0.15361949E-05 -0.25990544E-05  0.46419582E-06
 -0.35202355E-05 -0.15759942E-04 -0.32912135E-04 -0.98847527E-05  0.41749010E-05
  0.98477193E-05 -0.15606168E-04  0.23603047E-04 -0.84713028E-05  0.25130988E-04
 -0.10329575E-06 -0.11908645E-05 -0.14473568E-05  0.91737415E-06 -0.79059698E-05
  0.21382027E-05 -0.68355233E-06  0.52354624E-06 -0.24279925E-05 -0.36919551E-05
 -0.20547243E-05  0.15546565E-05  0.26631803E-05 -0.95759749E-05  0.15674070E-05
  0.35265397E-05 -0.12005429E-05 -0.37475489E-05 -0.28059867E-06  0.99427513E-06
 -0.12693653E-05  0.44743139E-06  0.89720424E-06 -0.12702334E-06  0.87556973E-06
  0.91224773E-06  0.12315971E-06  0.11483702E-05 -0.11082090E-04 -0.38665620E-06
  0.45604433E-05 -0.15005249E-04  0.19421183E-05 -0.27020127E-05 -0.22052643E-06
 -0.47788568E-06  0.80537622E-06  0.24099064E-05 -0.41990579E-05 -0.16072740E-05
  0.36204289E-05  0.23205224E-05 -0.30204066E-06 -0.78497381E-06  0.40678902E-05
  0.19186069E-04  0.32388568E-04 -0.21203164E-04  0.24585793E-05  0.15505300E-04
 -0.20189411E-04 -0.92003992E-05  0.88809924E-05 -0.15326482E-07  0.89682675E-06
  0.60279904E-05 -0.43646206E-05  0.78277447E-06  0.74121374E-05 -0.13781550E-05
  0.67518088E-06  0.16384363E-05 -0.57864136E-07  0.11343357E-04 -0.59951646E-04
  0.24248967E-04  0.29317722E-04 -0.12882881E-03  0.46451458E-04  0.10957351E-04
 -0.13088999E-04 -0.60639711E-05 -0.11922263E-05 -0.91310396E-05  0.11433192E-05
 -0.67822410E-06 -0.48603010E-06  0.43425932E-05 -0.22462214E-05  0.11682848E-05
 -0.10206202E-05 -0.19597014E-04 -0.17692467E-04  0.72625727E-05 -0.90285591E-05
  0.10019397E-04  0.74572118E-05  0.24800884E-04 -0.15916523E-04  0.26905578E-04
 -0.14313264E-05  0.14519457E-05  0.72230019E-06  0.11941777E-05 -0.85422994E-05
  0.28588651E-05 -0.16777622E-05 -0.10012168E-06 -0.96139432E-06 -0.29928930E-05
  0.50015320E-05  0.17051644E-04 -0.44431254E-05  0.10199960E-03 -0.36267437E-05
 -0.18264775E-04  0.64997738E-06 -0.17765691E-05  0.59908664E-06 -0.39120172E-06
  0.49405570E-06  0.11356633E-05  0.14363033E-05 -0.26895998E-05  0.15972167E-05
  0.40186524E-06 -0.14520957E-06 -0.63724254E-06 -0.30368908E-06 -0.84099749E-06
 -0.19351697E-04  0.71497141E-04 -0.12573964E-04  0.37877415E-05  0.10259832E-05
  0.43562345E-05  0.48423878E-06 -0.28793269E-05 -0.81273631E-06  0.96250142E-06
 -0.23659726E-05  0.29056430E-05  0.11447959E-05 -0.77734760E-06  0.50110636E-06
  0.37459875E-05  0.23412933E-05 -0.47767642E-06  0.16458917E-05 -0.47035424E-06
  0.12451241E-05 -0.47017596E-05  0.12927426E-05  0.33076930E-05  0.41096367E-05
 -0.11687767E-05  0.66847307E-08  0.18347713E-05 -0.54615148E-05 -0.71838234E-06
  0.25158128E-05  0.55708274E-06  0.57847447E-05 -0.10173140E-05  0.27513278E-04
  0.29953035E-05 -0.28803422E-04  0.12708250E-04  0.13291660E-03  0.19337669E-04
  0.15393668E-04 -0.10834267E-04  0.12230513E-06  0.88605109E-06  0.82539343E-06
  0.16683904E-05 -0.92303783E-06  0.41862607E-06 -0.39588901E-06 -0.46042391E-06
 -0.73480099E-06 -0.11783791E-04  0.36150614E-04 -0.12677893E-04 -0.12336075E-04
 -0.41880180E-04  0.25780924E-04 -0.23540710E-05  0.38416246E-05  0.36637623E-04

 -0.96422632E-06 -0.72261929E-06  0.25451752E-05  0.68357666E-06  0.36767659E-05
 -0.24244500E-05  0.34538836E-06  0.14599670E-05 -0.22925633E-06  0.27558928E-05
  0.51853454E-06  0.43664008E-05  0.27093737E-05  0.32366123E-05 -0.78689023E-05
  0.15190104E-05  0.56685321E-06 -0.78143149E-07  0.14383192E-04  0.40320795E-04
 -0.76856397E-05  0.39468423E-04 -0.11465476E-04  0.21918690E-04  0.31212508E-04
  0.13356736E-04  0.85696877E-05  0.61096836E-07  0.19785965E-05 -0.15533996E-05
  0.72448095E-06  0.49903689E-06 -0.31835083E-05 -0.17256994E-05 -0.86307398E-06
  0.22422724E-05  0.16299729E-04 -0.20399524E-05  0.24794394E-04  0.95262151E-05
 -0.37118151E-05  0.48452668E-04  0.57918726E-05  0.27964092E-05  0.25552982E-04
  0.86085935E-06  0.11104675E-05 -0.12691311E-05  0.16791820E-05  0.19311240E-05
 -0.62004752E-05  0.48337851E-06 -0.16047170E-05 -0.13031450E-05 -0.22715726E-06
  0.10171373E-05 -0.18427498E-07 -0.21206890E-06  0.25160489E-05 -0.21384020E-05
 -0.12891640E-05 -0.78210532E-06  0.18011133E-05 -0.35383731E-06  0.72016902E-06
  0.75099473E-06  0.84664847E-06 -0.29777347E-06 -0.20942945E-05  0.14842461E-06
 -0.87873490E-06 -0.11459206E-05 -0.70504064E-06  0.85142889E-06 -0.37590338E-06
  0.34460382E-06  0.31989498E-05 -0.13534817E-05  0.55314773E-06  0.77307889E-06
 -0.96185248E-06  0.32584215E-05  0.44137191E-06 -0.46760816E-06  0.16287050E-05
 -0.12138077E-05 -0.19872873E-06  0.10984598E-05 -0.16366757E-05  0.15431265E-05
 -0.82957326E-05  0.10167783E-04 -0.19509909E-04  0.13970129E-04  0.13494922E-04
 -0.15216870E-04 -0.34800492E-05  0.10343650E-04 -0.22146678E-04 -0.17793548E-05
 -0.37900449E-05  0.52271930E-05  0.19525123E-05  0.10357278E-05 -0.21898388E-05
  0.25431267E-05  0.27459150E-07 -0.66788195E-06  0.30427697E-04  0.21823396E-04
 -0.54094990E-04 -0.35250346E-05  0.32676682E-04 -0.59180091E-04  0.72750584E-05
  0.23416237E-04 -0.37646501E-05 -0.10613996E-05  0.23571834E-05  0.37060120E-05
  0.26046513E-06 -0.61632456E-06  0.12835323E-05  0.20755224E-05 -0.72572340E-06
 -0.27126823E-05  0.21695658E-04 -0.21003969E-04  0.28452245E-05  0.36546443E-04
 -0.35589639E-04  0.60226615E-05 -0.25536328E-05 -0.45632270E-04  0.15307785E-04
 -0.89216147E-06 -0.90327191E-06 -0.78134416E-06  0.11528926E-05  0.11118881E-05
 -0.20286641E-05  0.87461431E-07 -0.80985068E-07 -0.26308999E-05 -0.41395015E-05
 -0.11143463E-04  0.11232932E-04  0.16261039E-05  0.52031538E-06 -0.25277634E-04
  0.15772036E-05  0.14370730E-04  0.16336458E-04  0.63948707E-06 -0.38221684E-05
 -0.25942301E-05  0.25926000E-05 -0.13005705E-05 -0.23442080E-05 -0.16496095E-06
 -0.63770575E-06 -0.39128460E-05 -0.19020984E-05 -0.22270945E-05 -0.18666823E-05
 -0.14158743E-04 -0.12573964E-04  0.53097290E-04 -0.66988332E-07  0.50434214E-06
  0.31218683E-05 -0.11147061E-05  0.71559037E-06  0.41707608E-05  0.10485214E-05
  0.42946819E-05 -0.32577022E-05 -0.17637214E-05  0.32996349E-05  0.65473516E-05
 -0.16661650E-05 -0.55145793E-06  0.64081235E-06  0.18232134E-05  0.10451611E-05
 -0.16041467E-05  0.25661530E-05 -0.55707152E-06 -0.20381323E-05 -0.75299993E-06
 -0.68445382E-06 -0.19206056E-05  0.22358341E-05  0.18427116E-05  0.17183535E-05
  0.56667244E-06  0.73387541E-06  0.41171482E-05 -0.60665128E-05  0.32005663E-05
 -0.29476578E-04  0.12991123E-04  0.16485218E-04 -0.25034999E-04 -0.16945813E-04
 -0.13238713E-05  0.11934897E-04  0.71790030E-06 -0.19774460E-06  0.19432958E-05
  0.32934351E-06 -0.56792515E-06  0.31332571E-05  0.54147554E-06 -0.21319195E-06
  0.87613049E-06  0.45513910E-06  0.12432540E-04  0.26318010E-04  0.50333183E-04
 -0.62495631E-05  0.32423650E-04 -0.70638993E-05  0.10652729E-04 -0.42467339E-04

  0.71337036E-06 -0.15989041E-05 -0.12319167E-05  0.44851177E-06  0.19097280E-05
 -0.96813706E-06 -0.62412358E-06 -0.35895026E-06 -0.13556250E-05  0.15414444E-06
 -0.11328467E-05  0.12254776E-05  0.94777670E-06 -0.37901350E-05  0.79667612E-06
 -0.82529665E-06  0.62295941E-06 -0.30337719E-06 -0.96974788E-05  0.13217742E-04
 -0.11969047E-04 -0.21118714E-04 -0.18428724E-04  0.69535196E-05  0.45120211E-05
  0.54990028E-06  0.17850780E-04 -0.14689989E-05 -0.42132252E-06  0.24801938E-06
 -0.10366720E-05  0.27734441E-06  0.83487490E-06  0.40379641E-06  0.21555072E-06
  0.10283916E-05 -0.48948902E-06 -0.50196422E-05  0.47459419E-05 -0.78592210E-05
  0.86374359E-05  0.28820035E-05  0.10392877E-04  0.12553280E-05 -0.92061453E-06
 -0.64664144E-06 -0.19821592E-05  0.83831439E-06  0.18794810E-05 -0.29282607E-05
 -0.26019543E-06 -0.15091088E-05  0.82829101E-06  0.35768498E-06 -0.56734625E-06
 -0.13986483E-05 -0.48254087E-07 -0.16354094E-05  0.40564043E-05 -0.28739460E-06
 -0.11994523E-05  0.46713103E-06  0.14719552E-06  0.37045998E-08  0.72023679E-07
  0.28862395E-06 -0.92262585E-06  0.11020161E-06  0.10974212E-05 -0.66865240E-06
 -0.33718508E-06 -0.50438142E-07 -0.13652049E-05 -0.76355592E-06  0.63829127E-06
  0.57413030E-06  0.31252691E-07 -0.21642147E-06 -0.13434446E-05  0.45632714E-06
 -0.52320664E-06  0.10623027E-05  0.66558797E-06  0.64644676E-06 -0.55375327E-06
 -0.24941978E-05  0.59739492E-06 -0.20862158E-05  0.35484570E-06  0.51160585E-06
 -0.30263656E-05  0.19650858E-05  0.37616926E-06  0.16160810E-04 -0.30376667E-04
 -0.11271515E-04 -0.10386299E-04  0.38845672E-05  0.52208313E-05  0.93573204E-06
  0.47321497E-06  0.33654894E-06  0.14330789E-06  0.18458463E-05 -0.18769908E-05
 -0.81796002E-07 -0.47835165E-06 -0.36597131E-06 -0.12314716E-04 -0.14581016E-05
 -0.48351452E-05  0.21503155E-06 -0.67490071E-06 -0.21262194E-05 -0.53258991E-05
 -0.88200282E-06  0.86127721E-05  0.19243895E-06 -0.10233100E-05 -0.82583505E-06
  0.51922175E-06 -0.19491644E-05  0.16388250E-05  0.15107475E-05  0.13252205E-05
 -0.89198201E-06 -0.44421143E-05  0.11105001E-04  0.44788605E-05 -0.16094453E-04
 -0.22130696E-05  0.55451055E-05  0.65748196E-05 -0.70598214E-05  0.12160486E-04
  0.64375800E-08  0.73943750E-06 -0.55766340E-06 -0.15706879E-05 -0.34852390E-06
  0.14311637E-05 -0.16459841E-05 -0.86714612E-06 -0.64619250E-06 -0.47954158E-05
 -0.93648364E-05 -0.20693058E-05  0.30076503E-05  0.58914910E-05  0.21788325E-05
 -0.78468923E-05  0.29929935E-05  0.72065805E-05  0.16933940E-05 -0.15277963E-06
  0.63254468E-06 -0.47461591E-06  0.17739615E-05 -0.22389975E-07 -0.24312991E-08
  0.12982424E-05  0.29543965E-06  0.98482584E-06  0.48229947E-06  0.34967901E-06
 -0.34002418E-06  0.37877415E-05 -0.66988332E-07  0.21736398E-04  0.62431310E-06
  0.16160472E-05 -0.28631081E-07  0.30779584E-07  0.12948144E-05  0.28003278E-06
  0.12660064E-05 -0.17397151E-05 -0.11215729E-06 -0.17610142E-06  0.11795007E-06
 -0.39650306E-06  0.51178879E-05 -0.17531483E-05  0.36634740E-05 -0.52909795E-05
  0.11102714E-05 -0.16152241E-05  0.43190846E-06  0.16395345E-05 -0.47085520E-06
 -0.17791482E-05  0.61042886E-06  0.48343550E-06 -0.18585078E-05  0.80521092E-06
  0.19030743E-05  0.45034734E-06  0.26801378E-05  0.68887901E-05  0.19971758E-04
 -0.16511518E-04  0.89174403E-05 -0.43512376E-04  0.59587948E-04  0.43985984E-05
  0.14805299E-05  0.22973184E-04  0.73810873E-06  0.16496678E-06  0.96882389E-06
 -0.33157672E-07 -0.48371903E-07 -0.73727517E-06  0.10565850E-05 -0.10077602E-05
 -0.68630732E-06  0.18934541E-04  0.10371079E-04  0.75996260E-05 -0.12508008E-04
 -0.29238060E-05  0.51616277E-05 -0.46215812E-05 -0.67405729E-05 -0.84059415E-05

  0.60382235E-06 -0.23142204E-06  0.10986732E-05 -0.76776102E-06 -0.88904776E-07
  0.18188694E-05  0.46856599E-06 -0.18474527E-05 -0.11431856E-05  0.12954399E-05
  0.56021025E-06  0.12742947E-06  0.83466524E-06 -0.16186568E-05  0.43899659E-06
 -0.14813881E-05 -0.17628956E-05  0.17669785E-05  0.14679438E-04 -0.11762513E-05
 -0.88841269E-05  0.64021047E-04 -0.26114418E-04  0.25892286E-05 -0.43006995E-05
 -0.96415381E-06  0.21932527E-04 -0.10301195E-05  0.36408408E-06 -0.79422221E-06
  0.10402534E-05 -0.29199650E-07  0.82573529E-07  0.16827166E-06 -0.81684788E-06
 -0.19519271E-05  0.11651668E-04  0.83113028E-05  0.43319251E-05  0.14634655E-04
  0.24770392E-05 -0.25613435E-05  0.30111852E-05  0.16124281E-04  0.14745998E-04
 -0.15989718E-06  0.67972548E-06 -0.12970286E-06 -0.97813894E-06  0.75699573E-06
 -0.14698348E-05 -0.39206238E-06 -0.13289513E-05  0.82960725E-06 -0.10400347E-05
 -0.46589805E-06 -0.89992735E-06  0.12612648E-05 -0.88483523E-06 -0.13301545E-05
  0.71930335E-06 -0.14157348E-05 -0.38247738E-06  0.61665252E-06  0.43866788E-06
 -0.72095384E-06 -0.19527021E-06  0.20943618E-05 -0.10355369E-05 -0.50803911E-06
 -0.13435779E-05  0.43895300E-06  0.20155404E-06 -0.34235585E-06 -0.19167488E-05
  0.10897906E-05 -0.13913493E-05  0.11486386E-06 -0.47642842E-06  0.15109042E-06
 -0.12300210E-05 -0.49064237E-06 -0.95197541E-06  0.45414466E-05  0.48443788E-06
 -0.29386877E-06 -0.40781803E-06  0.11435179E-06 -0.17152771E-05  0.22507085E-06
 -0.16035006E-04  0.81677809E-05 -0.23822322E-05  0.35673431E-05 -0.11383471E-05
  0.78832657E-05 -0.11673637E-04 -0.33887422E-05 -0.21407029E-05  0.66580126E-06
 -0.14415193E-05 -0.40894414E-06 -0.18484154E-06 -0.14964286E-06  0.54618358E-06
 -0.13346951E-06 -0.74937113E-06  0.14983918E-05 -0.59736433E-05 -0.99224129E-05
  0.17726372E-04  0.62667992E-04 -0.11749815E-04 -0.16300303E-04 -0.42360843E-05
 -0.13427384E-04 -0.23850376E-04 -0.20682915E-06 -0.21419752E-05  0.47648726E-06
 -0.35475603E-06  0.94266320E-06 -0.14172765E-05 -0.42881184E-08  0.61099966E-07
  0.79430753E-06 -0.84958681E-05 -0.20025808E-04  0.20202923E-04  0.14540762E-05
  0.65503516E-06 -0.19857108E-04  0.42361826E-06 -0.50469050E-05  0.10111516E-04
 -0.56646622E-06  0.14866578E-05 -0.24284533E-05  0.18414504E-06 -0.84090770E-06
  0.99098545E-07 -0.70219035E-07 -0.38599342E-06  0.14324379E-05  0.50777494E-05
  0.48327563E-05 -0.51702465E-05  0.33110077E-05  0.17499720E-05  0.10684986E-04
 -0.35117983E-05 -0.92995297E-05  0.20408102E-05  0.79564249E-06  0.64256978E-06
  0.11461190E-05 -0.65078372E-06  0.26951560E-06  0.20361108E-06  0.19878100E-05
 -0.15422607E-05  0.71183213E-06 -0.67334372E-06 -0.53536475E-06 -0.10972487E-05
  0.31635653E-05  0.10259832E-05  0.50434214E-06  0.62431310E-06  0.21398453E-04
  0.72656273E-06  0.10918460E-05  0.18793948E-06 -0.17040929E-05 -0.19425252E-05
 -0.29206747E-06  0.34308038E-05  0.40454833E-06 -0.72018610E-06 -0.28050219E-05
  0.32119263E-06 -0.75791950E-07 -0.89522376E-06  0.27521438E-06  0.26333472E-05
  0.26870017E-06  0.74579236E-06 -0.59115789E-06  0.29915877E-05  0.11156350E-05
  0.31624440E-06 -0.16765476E-05  0.51510227E-06 -0.66243484E-06  0.73800575E-06
  0.14783876E-05  0.13961245E-05  0.51533488E-06 -0.12054529E-04  0.86312951E-06
 -0.29590210E-04  0.53972840E-05 -0.12999598E-04  0.10562342E-04  0.94928856E-05
  0.32700176E-05 -0.25483838E-04  0.66673820E-06  0.12166239E-05  0.18088694E-07
 -0.47279130E-06  0.96197409E-06  0.20132348E-07  0.31752789E-06  0.96700640E-07
 -0.79974375E-06 -0.87003498E-05 -0.34535233E-05 -0.16150153E-04 -0.18069320E-04
  0.64835415E-06  0.13761127E-04  0.45333451E-05  0.89994928E-05 -0.71805323E-06

 -0.14767235E-05 -0.11411749E-05 -0.16593650E-06 -0.22734950E-05  0.83158209E-06
  0.55900187E-05 -0.10972692E-05 -0.13289971E-05  0.62591097E-06  0.12532957E-05
  0.12175458E-05 -0.18480963E-06 -0.70356716E-06  0.33828568E-05  0.18399706E-05
  0.39904143E-06  0.57773608E-07 -0.15461849E-05  0.69348913E-06  0.28571043E-04
 -0.11265964E-04  0.41268291E-04 -0.86781762E-05 -0.27925321E-04  0.18986743E-04
  0.26593253E-05  0.24330762E-05  0.62349232E-08  0.19171365E-05  0.66024432E-06
  0.97917226E-06 -0.19425478E-05 -0.16200790E-06 -0.18569849E-06  0.38665070E-06
 -0.71214232E-06  0.82093682E-05  0.75089660E-05  0.30261556E-05  0.77507979E-05
  0.11878324E-04  0.56136676E-05  0.63914879E-06 -0.22302692E-06  0.27988560E-04
  0.53853182E-06 -0.35972034E-06 -0.58804073E-06 -0.44004183E-06  0.14807804E-05
  0.18468195E-07  0.10491488E-05 -0.66696265E-06 -0.24899236E-05 -0.34582824E-06
  0.23239254E-05 -0.13144106E-05  0.35592531E-06  0.78370201E-06 -0.60122464E-06
 -0.63009706E-06  0.11153418E-05 -0.20968531E-05 -0.16136700E-06 -0.47476809E-07
 -0.81905703E-06 -0.17604307E-06 -0.54199059E-06 -0.38908915E-06  0.92923949E-07
  0.11449548E-05  0.86040188E-08  0.60864217E-06 -0.81362695E-07  0.12433167E-05
  0.17365984E-05 -0.11078664E-05 -0.22084435E-05  0.14489689E-06 -0.43927223E-06
 -0.24643882E-05  0.48284702E-06  0.50428482E-05  0.20988049E-05  0.33248703E-06
 -0.64725821E-06  0.31326297E-05 -0.33031887E-07 -0.52567426E-07 -0.13571610E-05
  0.52318767E-05 -0.12184483E-04  0.89283558E-05 -0.70500630E-05  0.71860428E-05
  0.25787793E-04  0.82017334E-05 -0.84362434E-05 -0.20927272E-04  0.74403877E-06
  0.82544756E-07  0.62230962E-06 -0.88217758E-07  0.21834247E-05 -0.81685473E-06
  0.36634683E-06  0.57150156E-06 -0.37080516E-06 -0.50403660E-05 -0.15357598E-04
  0.51663351E-05  0.98101748E-05  0.78917778E-05 -0.42078351E-04  0.89822916E-05
  0.78510700E-05  0.54112449E-05 -0.20405331E-07 -0.76398120E-06  0.98945570E-06
 -0.16839814E-05  0.22908930E-05  0.54612369E-05 -0.74186451E-06  0.38331663E-06
  0.77479251E-07 -0.48782086E-05  0.62862661E-05 -0.27916919E-04  0.28390749E-05
  0.95629630E-05 -0.37964606E-04  0.24307780E-05 -0.90591878E-05  0.17831791E-04
 -0.52286880E-06 -0.18229570E-05  0.17158952E-05 -0.15950612E-05  0.70586793E-06
  0.19808539E-05 -0.20453093E-05  0.11020687E-05 -0.42238118E-05 -0.78786321E-05
  0.25902442E-04 -0.93078741E-06 -0.39050068E-05  0.12490512E-04  0.55718422E-05
  0.20856613E-05  0.11199296E-04 -0.17192871E-04 -0.80704421E-07 -0.18500943E-05
  0.82285142E-07  0.30601099E-05  0.10439812E-05 -0.54980040E-05  0.19918992E-07
 -0.20883775E-06 -0.36007746E-05 -0.29125371E-07 -0.38253815E-06 -0.13453449E-05
 -0.95536902E-06  0.43562345E-05  0.31218683E-05  0.16160472E-05  0.72656273E-06
  0.32833254E-04  0.10100320E-05 -0.10407866E-05 -0.52355027E-06  0.72405618E-06
 -0.32997637E-05  0.30002793E-05  0.96870357E-07 -0.20232924E-05  0.12321982E-05
 -0.19704703E-05 -0.11199639E-05 -0.64989110E-06  0.37893541E-06 -0.23408403E-07
  0.92465901E-06  0.11819545E-05  0.14135185E-05 -0.21208971E-05 -0.76444602E-06
 -0.52711268E-07 -0.61626804E-06  0.16486606E-05  0.16056998E-05 -0.41994515E-05
  0.10472957E-05  0.98171656E-06  0.30281704E-05  0.44085824E-05  0.34263286E-05
 -0.64134772E-05  0.76035682E-05  0.50336973E-05  0.68775496E-04 -0.93879799E-06
 -0.19130545E-04  0.27331593E-04  0.14864392E-05 -0.30704008E-07  0.51577114E-06
  0.48399702E-06 -0.17444903E-05 -0.62616400E-06 -0.73626062E-06 -0.60867059E-06
  0.20880169E-05  0.96071474E-05  0.10481977E-04  0.31761687E-04  0.20661016E-04
 -0.16429051E-04 -0.28461907E-04 -0.16370939E-04 -0.10440625E-04  0.20514050E-04

  0.34593844E-06  0.34243210E-06  0.31402794E-06  0.14676281E-05 -0.15642312E-05
  0.12661896E-06 -0.69148092E-06 -0.63603434E-06 -0.63330346E-07 -0.47031258E-06
 -0.66952724E-06 -0.40188772E-06  0.63083706E-06  0.36800829E-06 -0.85772172E-06
 -0.17578107E-06 -0.21510823E-06 -0.11399642E-05 -0.10981951E-05 -0.17147723E-04
  0.30460504E-05  0.73270910E-05  0.13051436E-05 -0.17806702E-04  0.37939110E-07
 -0.13695327E-04  0.13686102E-05 -0.16090418E-06  0.22964507E-06 -0.85701208E-06
  0.71970748E-06 -0.49005187E-06  0.11841152E-05  0.57442937E-06  0.40399866E-06
 -0.77529050E-09  0.95586570E-05  0.42123227E-05  0.39943900E-05  0.35219133E-05
  0.34617436E-06  0.58107520E-05  0.57346329E-06  0.66843562E-05  0.11224891E-04
 -0.16424036E-06 -0.76743149E-07  0.12278843E-05  0.34086770E-06  0.29989760E-06
  0.43882203E-07 -0.47154247E-06  0.12390154E-06 -0.56247884E-06 -0.53341510E-06
 -0.66894641E-06 -0.79051262E-06  0.46021149E-06 -0.93040255E-06  0.39980586E-06
 -0.12653522E-07  0.13878518E-07 -0.43061205E-06  0.13045328E-05 -0.16217953E-07
 -0.29439518E-06 -0.23012263E-06  0.39451089E-06 -0.10655577E-05 -0.35200338E-06
 -0.47509715E-06 -0.13715688E-06  0.72054021E-06 -0.22522861E-06  0.30785870E-06
 -0.21853342E-05 -0.72453322E-06 -0.57045995E-06  0.14742235E-06 -0.57650300E-06
 -0.11253659E-06  0.23334505E-06  0.17971957E-06  0.19491615E-05  0.55715295E-06
  0.90781220E-06  0.15867821E-06 -0.17563800E-07  0.21812220E-06  0.50766879E-06
 -0.29122758E-05  0.14086168E-04  0.16062938E-04  0.96412791E-05  0.21246486E-05
  0.19943236E-04  0.57257893E-05 -0.11355434E-04 -0.93980476E-05 -0.15435165E-05
  0.22950433E-06 -0.12192398E-06  0.46039289E-06 -0.20744252E-06  0.43841211E-06
  0.96139685E-06 -0.22751635E-06  0.97625997E-07  0.56827542E-05 -0.97171775E-05
 -0.11096779E-04 -0.15281722E-04  0.21504663E-05  0.13953549E-04  0.13011194E-04
  0.25368510E-04  0.13976633E-05 -0.13551767E-05  0.12226504E-05  0.24032302E-07
 -0.24728649E-05  0.19014859E-05  0.73804136E-06  0.72951321E-06  0.60126444E-06
  0.21270114E-06  0.19748912E-04 -0.31542776E-04  0.61448974E-05 -0.23533304E-04
 -0.14902043E-04  0.11285700E-04  0.23937826E-04  0.10875294E-04 -0.75314015E-05
 -0.12329889E-06  0.71261445E-06 -0.15867412E-05 -0.54885849E-07 -0.11169849E-06
  0.27619086E-06  0.62883437E-06  0.99462882E-06  0.14105138E-06 -0.72795216E-05
  0.15904237E-04 -0.13060989E-04  0.24858800E-05  0.31969502E-05  0.74567365E-05
 -0.11616440E-05 -0.42951023E-05 -0.64428494E-05  0.10728524E-06 -0.58494860E-06
  0.97764180E-06 -0.27035903E-06  0.31831212E-06  0.23360996E-06  0.90405682E-06
 -0.10424895E-05  0.37516049E-06 -0.12901044E-05 -0.11841033E-06 -0.25612596E-05
  0.80601584E-06  0.48423878E-06 -0.11147061E-05 -0.28631081E-07  0.10918460E-05
  0.10100320E-05  0.12402489E-04  0.41735444E-06  0.20018390E-05 -0.22291445E-06
  0.11595248E-06  0.17336291E-06  0.46626969E-06 -0.41333522E-06  0.39207994E-06
 -0.48287705E-06 -0.11265818E-05 -0.33832925E-06  0.10027757E-05  0.82367672E-07
  0.91190239E-06  0.34229029E-06 -0.35349523E-06 -0.33366525E-07 -0.12015437E-05
 -0.32957662E-07 -0.95432487E-06 -0.81462928E-06 -0.11487567E-05 -0.29702408E-06
  0.27785255E-06  0.76876267E-06 -0.13629813E-06 -0.57891885E-05 -0.30072313E-05
 -0.25018007E-04 -0.21176879E-04  0.74877759E-05 -0.18047817E-04  0.17956040E-04
  0.25342760E-04 -0.24772817E-04  0.27019026E-07 -0.58125029E-06 -0.76654764E-06
 -0.31490833E-06  0.72263959E-06 -0.73988807E-07 -0.79211560E-07  0.25332801E-07
 -0.63853299E-06  0.49317652E-05  0.90424089E-05 -0.69627109E-05  0.94488014E-05
  0.47957351E-05  0.19320611E-05  0.13507009E-04  0.57846038E-05 -0.16490838E-04

  0.76758194E-06  0.49976851E-06  0.18782298E-06  0.26762121E-06  0.14925054E-05
  0.13275732E-05 -0.38747693E-07  0.12382141E-05  0.10440874E-05  0.36678629E-06
 -0.11833613E-05 -0.49809277E-07  0.15116433E-05 -0.28311302E-05 -0.92227846E-06
 -0.52540802E-06  0.18295866E-06 -0.26133558E-06 -0.71991770E-05 -0.34470385E-05
 -0.62313792E-05 -0.10357801E-04 -0.12038443E-05 -0.61387275E-05  0.19170431E-04
 -0.11332016E-04 -0.52284194E-05  0.10824990E-05 -0.13831246E-06 -0.17588155E-05
 -0.15275865E-05  0.71450539E-06  0.10489498E-05  0.19085038E-05 -0.99587525E-06
  0.73522887E-06  0.11610774E-05 -0.10081158E-04 -0.87934564E-05 -0.79883141E-05
 -0.10794036E-04 -0.39262492E-05 -0.12947139E-04 -0.21929374E-05 -0.11744938E-04
 -0.76530392E-06  0.29821150E-06  0.81294764E-06  0.47853087E-07  0.19239935E-05
  0.73070700E-06  0.86059745E-07  0.92777638E-06  0.15441616E-05  0.88652100E-06
  0.26692364E-06 -0.38056638E-06  0.95436087E-06 -0.30987246E-05  0.61385675E-06
 -0.50378381E-06 -0.77390672E-06 -0.12958551E-06 -0.96235202E-07  0.17912353E-05
  0.18418565E-06  0.93250523E-06 -0.19253523E-05  0.92461589E-07 -0.34759299E-06
  0.87062622E-06 -0.18678531E-06  0.18450789E-06  0.35964547E-05 -0.81648092E-06
  0.27307309E-06  0.31156665E-06 -0.31756181E-06  0.39759763E-06  0.16711179E-06
  0.19551964E-05 -0.40713609E-06 -0.22479764E-05  0.32610121E-05  0.10735449E-05
  0.65321347E-06 -0.40631301E-06 -0.30931025E-06 -0.63822524E-06 -0.17026611E-05
  0.12794566E-04 -0.17161942E-04  0.67971354E-05  0.10644264E-04 -0.11613445E-04
 -0.44277111E-05  0.86179923E-06 -0.17782209E-04  0.14823184E-04  0.74289349E-06
  0.18359416E-05  0.92470262E-06 -0.21938999E-06 -0.30628609E-06  0.18042090E-05
  0.30235201E-06 -0.54220830E-06 -0.18073115E-05 -0.92201825E-05  0.34141399E-04
  0.10007331E-04 -0.16916474E-04  0.19367259E-04  0.34375513E-04  0.85322415E-05
 -0.74452333E-05  0.11749289E-04  0.28490112E-06  0.33667820E-05 -0.12713873E-05
  0.13073748E-05 -0.33736171E-05 -0.49258271E-06 -0.50816541E-06  0.48486094E-06
  0.14202873E-05  0.81725743E-05  0.71342668E-05 -0.62056087E-05  0.19837048E-04
 -0.18387914E-04 -0.22778369E-04 -0.99852779E-05  0.33434532E-05 -0.39471372E-05
  0.32519773E-06 -0.49296782E-05 -0.12851122E-06  0.91998654E-06  0.33977465E-06
 -0.82128268E-06 -0.60026505E-06 -0.55128826E-06 -0.50218025E-08  0.36273804E-05
 -0.13653742E-04 -0.36213458E-05  0.21477107E-05 -0.61507181E-05  0.51865949E-05
  0.12797185E-04  0.10519641E-06  0.70509490E-05 -0.11588524E-05 -0.25039961E-05
  0.86898354E-06  0.42878839E-06  0.34009835E-05 -0.71538883E-06 -0.80058370E-06
 -0.24307929E-06 -0.86385611E-06 -0.69706075E-06  0.13767956E-07 -0.89839165E-06
  0.99080249E-06 -0.28793269E-05  0.71559037E-06  0.30779584E-07  0.18793948E-06
 -0.10407866E-05  0.41735444E-06  0.23379601E-04  0.38117434E-05 -0.25158224E-05
  0.49899797E-05  0.46670319E-06 -0.13475535E-06 -0.20857569E-06  0.32294979E-05
  0.68952061E-06 -0.17152870E-05 -0.55869075E-06  0.54495339E-07 -0.30515616E-06
  0.28170635E-06 -0.18104937E-06 -0.41582188E-07  0.49671887E-06 -0.94207093E-06
  0.37432608E-05 -0.58787834E-06 -0.14945090E-05  0.61761856E-05 -0.43384013E-06
 -0.65245859E-08 -0.34690477E-06 -0.88552512E-06 -0.29684400E-05 -0.25070884E-05
  0.44268205E-04  0.27398327E-05  0.43260745E-04 -0.64158169E-04  0.89363438E-06
  0.13610619E-04  0.54819330E-05 -0.12464233E-05 -0.14289515E-05 -0.63132562E-06
 -0.15483158E-06 -0.91218767E-07 -0.41171722E-06  0.77330922E-06 -0.27964231E-06
 -0.26043793E-06  0.38703178E-04  0.49037010E-04  0.81309821E-04  0.16640467E-03
 -0.14727307E-04 -0.65846677E-04 -0.25203105E-05 -0.25740493E-04 -0.92496843E-04

  0.13540940E-06 -0.83465562E-06  0.44084354E-06  0.37159641E-06  0.10257951E-05
 -0.27228936E-05 -0.19852309E-06  0.50085634E-06 -0.80043166E-06 -0.17535587E-06
  0.16159858E-05 -0.24400460E-05  0.14794130E-06  0.17954790E-06  0.79876378E-06
 -0.57936920E-06 -0.48631429E-06  0.36074244E-06  0.23748856E-04  0.24438221E-04
  0.15318834E-04 -0.26993751E-04  0.11309349E-04  0.16058295E-05 -0.32885439E-05
 -0.14188770E-04  0.85150122E-05 -0.96336603E-06  0.12313777E-06 -0.53282260E-06
 -0.33048864E-06 -0.57608924E-06  0.45454696E-05  0.20354717E-07  0.67587519E-06
  0.39869692E-06  0.11224446E-04 -0.38878623E-05 -0.15550861E-05  0.86095562E-05
  0.49692305E-05 -0.15740829E-04  0.67242036E-05 -0.17125884E-06  0.25174517E-05
  0.10715141E-05  0.10802814E-05 -0.60092792E-06 -0.77423599E-07  0.15795830E-05
 -0.12347105E-06 -0.45306088E-06  0.29436679E-06 -0.37862060E-07 -0.95021151E-06
 -0.51777374E-06 -0.44133683E-06  0.23024154E-06 -0.43939818E-06  0.70593465E-06
 -0.76324891E-06  0.22445930E-06  0.39109936E-06 -0.16733905E-06 -0.51777775E-06
  0.17746953E-05  0.93369285E-07 -0.58942872E-06  0.43785306E-06  0.53089918E-07
 -0.98633582E-06  0.51178000E-07  0.11322705E-06  0.12224307E-05 -0.35473563E-06
 -0.59084216E-08  0.13200055E-05 -0.18162379E-05  0.52271677E-06 -0.13396300E-05
  0.12939238E-05 -0.38212819E-06 -0.51641954E-06  0.15825170E-05  0.25578002E-06
 -0.10781031E-05  0.39125168E-07 -0.22541980E-06  0.13182674E-05 -0.13676738E-05
  0.11308779E-04  0.33211684E-05  0.67768117E-05 -0.84890856E-05  0.66990867E-05
 -0.45753548E-05 -0.82906422E-05  0.17717271E-04  0.64096591E-05  0.10718244E-05
  0.12920728E-05  0.11391393E-06  0.11651061E-05 -0.10366039E-05 -0.10470900E-06
 -0.11096367E-06 -0.14864343E-06 -0.53522468E-06 -0.17394336E-04  0.17693215E-04
  0.36481976E-04 -0.12214509E-04 -0.12035820E-04  0.75175373E-04  0.91471522E-06
 -0.78661331E-05  0.12262223E-04 -0.72407498E-06 -0.21564926E-06 -0.10859939E-07
 -0.47631372E-06  0.20999146E-05  0.17862037E-05  0.57563170E-06  0.11485357E-05
  0.14385715E-05  0.50709412E-05 -0.29124774E-04  0.29576052E-04  0.13318677E-04
  0.14127971E-04  0.10889927E-04 -0.54147102E-05 -0.10856113E-04  0.23670066E-04
 -0.14551069E-05 -0.19778865E-05  0.31613505E-06 -0.16697431E-06  0.14932363E-05
 -0.58228002E-06  0.85133540E-06  0.21269020E-06 -0.73508481E-06  0.58029912E-07
 -0.48151561E-06 -0.65139656E-05  0.19010591E-05  0.12259434E-04 -0.14875277E-04
 -0.18929157E-06  0.93981320E-05 -0.19955006E-05  0.13742799E-05 -0.73146313E-06
 -0.93764751E-06 -0.11430318E-06 -0.58816507E-06  0.31478227E-06 -0.20993860E-06
  0.29559935E-06  0.57615874E-06 -0.22441475E-05  0.13660979E-06 -0.13368576E-05
 -0.67235389E-06 -0.81273631E-06  0.41707608E-05  0.12948144E-05 -0.17040929E-05
 -0.52355027E-06  0.20018390E-05  0.38117434E-05  0.17941386E-04 -0.20867378E-06
  0.24635653E-05 -0.12408287E-05  0.43181704E-06  0.32949816E-06  0.29364241E-05
 -0.42392924E-06 -0.57958674E-06 -0.40828018E-06  0.33087464E-06 -0.43535569E-06
 -0.10570907E-05 -0.19745247E-06  0.13121379E-05 -0.45155634E-06 -0.37525058E-06
  0.48011694E-06 -0.26538323E-05 -0.58804488E-07 -0.15225491E-05  0.27023569E-05
  0.10090613E-06 -0.89955502E-06  0.16358105E-05 -0.52233006E-05  0.58671665E-05
 -0.25297633E-04 -0.52100456E-05 -0.99675594E-05  0.10477124E-03 -0.14343750E-04
 -0.31443946E-04  0.20977714E-04 -0.98950780E-06 -0.12937707E-05  0.24277030E-06
 -0.11070518E-06  0.81240019E-06 -0.34810922E-07  0.15158507E-06 -0.11905836E-06
  0.27704602E-06  0.40322072E-05  0.35053139E-04  0.16019038E-04  0.99245611E-04
 -0.38929178E-04  0.32903568E-05 -0.10647045E-04 -0.84861037E-05 -0.61688796E-04

 -0.89232602E-06 -0.81109664E-06 -0.39071412E-06 -0.41143099E-06  0.10026796E-05
  0.12310281E-05  0.27991397E-06 -0.54430060E-06 -0.12089792E-05 -0.83962434E-06
  0.13308625E-05  0.10834693E-06 -0.17356371E-05  0.31471052E-06  0.13710176E-05
 -0.13489563E-05 -0.10133498E-05  0.92534930E-06  0.17094326E-04  0.25598921E-04
 -0.26892804E-06 -0.37322428E-05 -0.33822821E-05  0.33723772E-05 -0.11731576E-04
  0.32704542E-05 -0.43778411E-05 -0.46484826E-06  0.38304623E-06 -0.84211929E-06
 -0.81222251E-06  0.74681069E-06  0.14400906E-05 -0.39590527E-06  0.49890739E-06
 -0.43742053E-06  0.13028691E-05 -0.81035781E-05 -0.64469524E-05 -0.24522186E-05
  0.12926974E-04  0.12398432E-04 -0.28231900E-05 -0.13661714E-06  0.15917468E-04
  0.14738328E-05 -0.21761221E-08 -0.54278204E-07  0.31251979E-06  0.68812036E-06
  0.27499018E-06 -0.46514582E-06  0.27978533E-06 -0.13372589E-05  0.27407928E-06
  0.35930643E-06  0.86200946E-06 -0.11898748E-06  0.60592514E-06  0.66167931E-06
 -0.38724827E-06 -0.31373435E-06 -0.39382833E-06 -0.17036463E-06  0.37108628E-06
 -0.51160054E-06 -0.46222944E-06  0.70091953E-06  0.12162080E-05 -0.28833961E-06
  0.15156829E-05  0.26351125E-06  0.30660876E-05  0.11231324E-05  0.83693413E-06
  0.30117643E-06 -0.10521809E-05  0.53328013E-06 -0.21141510E-06 -0.11964650E-05
 -0.12302228E-07  0.16506127E-06  0.30592805E-06 -0.79577487E-06  0.10691388E-05
  0.11324281E-06  0.55224639E-06 -0.20638232E-07 -0.58121387E-06 -0.21858138E-05
  0.21125501E-04 -0.75010312E-06 -0.17644441E-04 -0.27905045E-04  0.29824331E-04
 -0.68462566E-05  0.17022965E-04 -0.68817331E-05 -0.97507902E-05  0.15342357E-05
  0.87881494E-06 -0.11112974E-05  0.41362633E-06  0.44522226E-06 -0.14979212E-05
 -0.13616298E-05  0.57571663E-06  0.51404109E-06 -0.14535778E-04 -0.72440700E-05
  0.18358274E-06  0.83692932E-04 -0.13257112E-04 -0.14081822E-04 -0.96341370E-05
  0.96024938E-06 -0.17510038E-05 -0.23756218E-05 -0.26691175E-05 -0.45204926E-06
 -0.67899512E-05  0.46487360E-05  0.21494174E-05  0.46580547E-07 -0.89482798E-06
 -0.47610879E-06 -0.76371126E-05 -0.51011780E-05 -0.93748278E-06  0.13289667E-04
 -0.25051819E-06  0.33250462E-04 -0.35120665E-04 -0.20190701E-04  0.18848682E-04
 -0.26627791E-06 -0.46056258E-06 -0.48151358E-06  0.11301242E-05  0.48552419E-06
  0.59720147E-06 -0.29634093E-06  0.13146690E-05  0.72669821E-06 -0.34776371E-05
  0.16783929E-04 -0.77396734E-05 -0.13951449E-04 -0.54300588E-05  0.25588020E-04
  0.96978299E-05 -0.27346092E-05 -0.76311384E-05 -0.81765926E-06  0.15098575E-05
  0.43239012E-06  0.61152938E-06  0.13199462E-05  0.43787935E-06 -0.12638757E-06
  0.97470877E-06  0.13377131E-05 -0.22753136E-05 -0.82985834E-06 -0.27059012E-06
 -0.11077145E-05  0.96250142E-06  0.10485214E-05  0.28003278E-06 -0.19425252E-05
  0.72405618E-06 -0.22291445E-06 -0.25158224E-05 -0.20867378E-06  0.24644120E-04
 -0.11349239E-04 -0.74056129E-05  0.19966316E-06  0.27823866E-05 -0.17218729E-05
 -0.49340034E-06  0.11809022E-05  0.91090635E-06 -0.69900463E-06  0.11357248E-05
  0.52097717E-06  0.37105782E-07  0.54201452E-07 -0.97818436E-06  0.80127350E-06
 -0.67167331E-06 -0.10083676E-05 -0.34957405E-05  0.51359404E-06  0.11084133E-05
  0.88790083E-06 -0.23962041E-06  0.13472766E-05 -0.82992948E-05  0.14197682E-04
  0.40960153E-05  0.27581867E-04 -0.16182282E-04  0.27557692E-04 -0.23643091E-04
 -0.36781457E-05  0.77371235E-05 -0.39430211E-06  0.19634816E-06  0.10647859E-05
 -0.58362098E-06  0.12794413E-05  0.70839924E-06 -0.39153270E-06 -0.13316700E-05
  0.10620367E-05 -0.20297385E-04 -0.39552213E-04 -0.30885391E-04 -0.70819393E-04
  0.47765041E-05  0.18335255E-04  0.11938919E-04  0.10278439E-04  0.52819163E-04

  0.97296727E-06 -0.14044283E-07 -0.33239374E-06  0.12106782E-05  0.12216185E-05
  0.34342238E-06 -0.14980938E-06 -0.61742029E-07  0.17488477E-06  0.15250266E-05
  0.25789795E-05  0.15002911E-05  0.17167113E-05  0.20809831E-05 -0.15459204E-05
  0.15629521E-07  0.15501617E-05  0.10643231E-05 -0.40354751E-05  0.18799478E-04
  0.98547309E-06  0.59089652E-04 -0.24999734E-04 -0.75126343E-05  0.13932902E-04
 -0.13028806E-04 -0.59180873E-06  0.86014415E-06  0.65883672E-06 -0.42525609E-06
  0.22161431E-05  0.17959303E-05  0.44932790E-07  0.16186504E-05 -0.10244230E-05
  0.92600707E-06  0.55360599E-05  0.24479560E-04  0.64598755E-05  0.12677089E-04
  0.41139264E-04  0.27873373E-05  0.16056588E-04  0.11837442E-04  0.15126069E-04
 -0.10775385E-05 -0.63172899E-06  0.62790812E-06  0.68984513E-06  0.13138301E-06
  0.12544267E-05  0.16536148E-06 -0.41994797E-06  0.11207151E-05 -0.11670607E-05
  0.14057806E-05  0.14069087E-05  0.11536725E-05 -0.15085644E-05 -0.59167334E-06
  0.39558342E-06  0.46480872E-06 -0.34335145E-06 -0.15665752E-06  0.31444390E-06
  0.84621145E-06  0.12121787E-05 -0.25959728E-05  0.19824580E-05 -0.59260375E-06
 -0.11473280E-05 -0.42291854E-06  0.18771844E-06 -0.41705297E-05  0.13000510E-05
 -0.45986580E-07  0.51745122E-05  0.65048941E-06  0.13070247E-05  0.63682212E-06
  0.12430539E-05  0.62941457E-06 -0.15843955E-05  0.27041610E-06 -0.26724162E-06
 -0.12429517E-05 -0.14970440E-05  0.11257855E-05 -0.38667799E-06  0.30978274E-06
 -0.17163536E-04 -0.31755740E-05 -0.67579164E-05  0.34188119E-04 -0.37350401E-04
 -0.17850960E-04 -0.54667331E-05  0.13566571E-04  0.16735113E-04 -0.26174412E-05
 -0.63485387E-05 -0.48537620E-07  0.36757267E-06 -0.15501721E-05  0.98912860E-06
 -0.24622198E-06 -0.12194731E-06  0.31255374E-05  0.17917114E-04  0.28321581E-05
 -0.52695748E-04  0.22590419E-04 -0.31797877E-04  0.16313029E-04  0.39447560E-04
  0.10573312E-04 -0.36116302E-04  0.17570372E-05  0.49129733E-05  0.58279903E-06
  0.68034516E-05 -0.10434998E-04  0.14618171E-05  0.25743770E-07  0.15368691E-05
 -0.81607820E-07  0.49730915E-05 -0.15157711E-04  0.32416206E-05 -0.61765349E-05
 -0.42615642E-05 -0.16649432E-04  0.32235568E-04  0.54566345E-05 -0.15857438E-04
 -0.67306900E-06  0.11859381E-05  0.16897727E-05 -0.18972340E-05  0.16125255E-05
  0.31536052E-05  0.16942567E-05 -0.12697722E-05 -0.14981147E-05 -0.74193171E-05
 -0.30763218E-04  0.14204210E-04  0.10064839E-04  0.62495535E-05 -0.16445576E-04
 -0.21610479E-04  0.11980805E-04  0.25911237E-04 -0.34525752E-06 -0.66566737E-05
 -0.55420310E-06  0.16575017E-05 -0.48896194E-05  0.34056891E-05 -0.43747887E-06
  0.98577221E-07 -0.50295951E-07  0.48607169E-06  0.22024692E-05  0.19564694E-05
  0.10835883E-05 -0.23659726E-05  0.42946819E-05  0.12660064E-05 -0.29206747E-06
 -0.32997637E-05  0.11595248E-06  0.49899797E-05  0.24635653E-05 -0.11349239E-04
  0.38221677E-04 -0.50083417E-05 -0.10633704E-05 -0.30409943E-06  0.58752232E-05
  0.33310916E-06 -0.16601638E-05  0.61190092E-06  0.12069450E-05 -0.46375468E-05
  0.22639509E-05  0.13156793E-06  0.43204752E-06  0.19434266E-05  0.32620272E-05
  0.28793920E-05 -0.86084873E-06  0.24602166E-05  0.24584132E-05  0.12700988E-05
  0.15724618E-05  0.80574384E-06  0.45537485E-06 -0.17546112E-04  0.71468908E-06
  0.15286639E-04  0.61401297E-05  0.35904294E-04 -0.82222859E-05  0.20232035E-04
  0.12276123E-04 -0.26441997E-04  0.99302604E-06 -0.12571638E-05 -0.97672081E-06
  0.14730900E-05 -0.33981479E-05  0.50594760E-06  0.81711054E-06  0.33914633E-06
 -0.39578503E-05  0.44442523E-04  0.53049173E-04  0.96913600E-04  0.16340116E-03
  0.32982462E-04 -0.79687118E-04 -0.26471486E-06 -0.38062517E-04 -0.10423756E-03

  0.13415655E-06 -0.15756678E-05  0.33936833E-05  0.28300175E-06  0.70597427E-06
 -0.26986785E-05  0.25391436E-08 -0.85684455E-06  0.14441447E-05  0.24608009E-06
  0.19078135E-05  0.56008790E-06  0.79098929E-06  0.48964792E-06 -0.25605185E-06
  0.83091471E-06 -0.94934620E-07  0.26281936E-06  0.14442132E-04  0.18004324E-04
  0.96011719E-05  0.37309400E-04 -0.31132205E-04  0.32274531E-04 -0.92047201E-05
 -0.18257069E-04 -0.12894406E-04 -0.17346159E-06 -0.31482985E-06  0.35243587E-05
  0.70267320E-06 -0.35616921E-06  0.93071071E-07 -0.41218313E-07 -0.47443199E-07
 -0.46084037E-06 -0.58377959E-05 -0.22319885E-06 -0.17118809E-04  0.62352600E-05
  0.52324896E-05 -0.15847218E-04  0.93378121E-05 -0.81746568E-06  0.10538039E-05
 -0.12828671E-05 -0.77315025E-07 -0.11820595E-05  0.51613020E-06  0.43356815E-06
 -0.27065482E-05  0.60897832E-06 -0.29760461E-07  0.10862522E-05 -0.19344702E-06
 -0.10453979E-05  0.19899209E-06  0.10208179E-05  0.51254832E-06 -0.11418267E-05
 -0.47946263E-06 -0.25486709E-06 -0.79817319E-08  0.63935048E-07  0.37591702E-06
  0.10181310E-05  0.90666841E-06  0.15985371E-05 -0.10733965E-05 -0.34552553E-06
 -0.76279463E-06  0.96025552E-06 -0.42196154E-06  0.41171673E-06 -0.12121933E-05
  0.14949698E-05 -0.99918574E-06  0.17183996E-06  0.43224822E-06  0.11620385E-05
 -0.20440951E-06 -0.13790285E-05 -0.14368555E-05  0.60782763E-06  0.10038528E-05
  0.17716028E-06  0.21158480E-05 -0.51689968E-06  0.41891447E-06  0.18158172E-05
 -0.32167502E-05  0.14067627E-04  0.25395156E-04 -0.15200828E-05  0.18488492E-06
  0.39027655E-04 -0.11903947E-04 -0.22321343E-04  0.99382704E-05  0.15026733E-06
  0.54160781E-06  0.13396577E-05 -0.11943861E-05  0.10568010E-05  0.44060165E-05
  0.12738198E-05  0.58131106E-06 -0.78126976E-06  0.19343075E-05 -0.12594600E-04
  0.34112642E-04  0.60137418E-05  0.10701238E-04 -0.36729418E-04  0.48810572E-05
  0.17399658E-04 -0.65508859E-05 -0.59497891E-06 -0.79911614E-06  0.39728086E-06
  0.51087851E-06  0.32221920E-05 -0.21934443E-05  0.21939730E-06  0.71152182E-07
  0.22379320E-06 -0.19783914E-04 -0.51660754E-05 -0.11866360E-05  0.16167554E-04
 -0.71503370E-05 -0.41527517E-04  0.23267429E-06  0.29527405E-05  0.46304851E-05
 -0.51866773E-06 -0.14750757E-06  0.14521220E-05  0.13205276E-05 -0.12234960E-05
 -0.30263010E-05 -0.43061866E-06  0.41566936E-07 -0.78726588E-06  0.42364083E-05
  0.29076346E-05  0.17813321E-05  0.14136298E-04  0.14318344E-04 -0.47433531E-04
  0.22854545E-05  0.76622402E-05  0.79047317E-05  0.16955263E-06  0.13738838E-05
 -0.39202779E-06  0.31284815E-06  0.27274107E-05 -0.28878949E-05 -0.74463705E-07
 -0.12969265E-05 -0.29655365E-05  0.22011487E-05 -0.11497684E-05 -0.94881090E-07
  0.10500074E-05  0.29056430E-05 -0.32577022E-05 -0.17397151E-05  0.34308038E-05
  0.30002793E-05  0.17336291E-06  0.46670319E-06 -0.12408287E-05 -0.74056129E-05
 -0.50083417E-05  0.26066224E-04  0.57040155E-06  0.71242252E-06  0.98638647E-06
 -0.27485654E-07 -0.10159649E-06 -0.12847232E-05  0.97309598E-06  0.17632838E-05
 -0.21507406E-05 -0.65060069E-06 -0.16152514E-05 -0.56435735E-07 -0.10751031E-06
 -0.60090807E-06  0.10978997E-05  0.12327943E-05  0.23493027E-05 -0.44882892E-05
 -0.25668241E-06  0.78236627E-06 -0.40457213E-06  0.10913944E-04  0.24954836E-05
  0.23119820E-04 -0.25031420E-05 -0.15768705E-06  0.22466018E-04  0.59404298E-05
 -0.70781705E-05  0.14733013E-04 -0.16048693E-06  0.70331561E-06 -0.51449509E-06
  0.63239361E-06  0.29609527E-06 -0.37303077E-06 -0.19567586E-06  0.98373355E-06
  0.12937081E-06  0.18428433E-04  0.23830441E-04  0.92305166E-05  0.48262394E-04
 -0.42621665E-04  0.64605979E-05  0.87922060E-06 -0.49550896E-05 -0.16938078E-06

  0.10227296E-05  0.68958685E-06 -0.68299578E-06  0.47291376E-06 -0.30993946E-06
 -0.34525488E-06 -0.64021558E-06 -0.19814776E-06 -0.79091021E-06  0.10276258E-05
 -0.27271803E-06  0.12964898E-05 -0.11773576E-05 -0.23501905E-06  0.14596226E-05
  0.60783662E-06  0.58978760E-06  0.15490357E-05  0.17722640E-05  0.20110246E-04
  0.16296557E-05  0.25141147E-04 -0.15576125E-04  0.10042843E-04 -0.98250161E-05
  0.11702886E-04  0.44747709E-05 -0.94214582E-06 -0.15103941E-05 -0.86769723E-08
  0.21872430E-06 -0.11241845E-05 -0.95131437E-06  0.26864111E-06 -0.98181234E-06
 -0.27522596E-06 -0.32454119E-05  0.15329575E-05 -0.26787048E-05 -0.27713874E-05
  0.49046383E-05 -0.10487077E-04  0.41849896E-05 -0.76006925E-05  0.21118546E-05
 -0.10648616E-05 -0.85722825E-06 -0.17153210E-06  0.41625941E-06  0.11572611E-06
 -0.86274403E-07  0.12539797E-07  0.88611253E-07  0.84438999E-06  0.16389438E-06
 -0.17500210E-06 -0.55949608E-06  0.97001912E-06 -0.23360253E-06 -0.74627607E-06
 -0.73317623E-06 -0.29478427E-06 -0.82942837E-07  0.36570958E-06 -0.32257496E-06
  0.45158224E-06 -0.82028793E-06  0.14718618E-06  0.14634590E-06 -0.74425015E-06
 -0.63373796E-06  0.23337301E-06  0.33511394E-06  0.31003262E-05 -0.29841695E-06
  0.12418610E-06  0.16402117E-05 -0.10400400E-06 -0.76807320E-07 -0.20439612E-06
 -0.15257962E-06 -0.90607114E-06 -0.65481768E-06 -0.31183990E-06  0.45741321E-06
 -0.38979114E-05  0.54199635E-06 -0.47943135E-06 -0.84840920E-06  0.86057017E-06
  0.19772485E-05 -0.18995122E-04 -0.34901919E-05  0.14891280E-04  0.82789117E-05
 -0.13782754E-04 -0.93874929E-05 -0.26328801E-05  0.14631107E-04  0.17215294E-05
  0.11930826E-05 -0.25518324E-06  0.46986325E-06  0.24563840E-07  0.92731327E-07
  0.76135646E-06  0.11236296E-05 -0.66442355E-06 -0.82560902E-06  0.14605146E-04
  0.17709154E-04 -0.98216404E-05  0.11237508E-04  0.98873928E-05 -0.31852498E-05
 -0.14234826E-04  0.15161828E-04  0.70211696E-06  0.13437546E-05  0.30406764E-06
 -0.37969849E-06  0.12105977E-05  0.75241068E-06 -0.45563134E-06  0.25925433E-06
  0.77457865E-06  0.55244598E-05  0.22423476E-05 -0.53236104E-05 -0.28552820E-04
  0.20804277E-04  0.51457675E-06 -0.14366026E-05  0.13433627E-05 -0.61093698E-05
 -0.13288065E-06 -0.19726894E-05  0.18283104E-05  0.87062535E-07 -0.19195123E-05
  0.56257686E-06 -0.60452507E-06  0.51306731E-06 -0.83499352E-08  0.22747164E-05
  0.79038054E-05  0.20952659E-05  0.49556224E-05 -0.18351937E-04  0.17756829E-05
 -0.76804043E-05  0.25324896E-05 -0.12525475E-04 -0.11268536E-05 -0.69852542E-06
 -0.40471285E-06 -0.60728255E-06 -0.97936670E-07 -0.55717073E-06 -0.42123248E-07
  0.11922630E-07 -0.98622955E-07 -0.94235552E-06 -0.43023802E-06 -0.20015900E-05
  0.49878200E-06  0.11447959E-05 -0.17637214E-05 -0.11215729E-06  0.40454833E-06
  0.96870357E-07  0.46626969E-06 -0.13475535E-06  0.43181704E-06  0.19966316E-06
 -0.10633704E-05  0.57040155E-06  0.12769474E-04  0.66123954E-06  0.24972165E-05
  0.28209380E-06 -0.47457238E-06  0.12794327E-05 -0.60533944E-06  0.77091554E-06
 -0.29895611E-06 -0.15028554E-05  0.56943598E-06 -0.13604708E-05 -0.13160268E-05
 -0.19535120E-05  0.22156708E-06  0.67828666E-06 -0.74978627E-07 -0.92938932E-07
  0.23313398E-05 -0.23655067E-06 -0.14195439E-06  0.94220589E-05 -0.23827009E-04
  0.12303904E-04 -0.11050656E-04  0.49480410E-05  0.30279131E-05 -0.56083673E-06
  0.36033110E-05  0.69869714E-05 -0.57587194E-06 -0.60008515E-06  0.47435716E-06
  0.25824457E-06  0.58778698E-06 -0.35436021E-06 -0.47460768E-06  0.61492433E-06
  0.34375168E-06 -0.18673892E-04  0.26160537E-05  0.47579462E-05  0.48774971E-05
 -0.12571445E-04  0.12709079E-04  0.13499958E-04  0.30586220E-04  0.10742456E-05

  0.12388002E-05  0.35683054E-06 -0.58017244E-07  0.49025347E-06  0.50133172E-06
 -0.12943931E-05 -0.22071854E-07 -0.10392478E-05 -0.12576218E-06  0.11159667E-06
  0.12801508E-05 -0.22855884E-06 -0.58988951E-06  0.13046801E-06  0.56355202E-07
  0.45790666E-06 -0.67048902E-06 -0.15347979E-07  0.28151945E-05  0.19175488E-04
 -0.53677261E-05  0.10425847E-04 -0.59951012E-06 -0.37705672E-05  0.14861838E-05
  0.82998193E-05 -0.19831696E-05  0.68193180E-06  0.31157811E-06 -0.73179135E-06
 -0.15170678E-06 -0.35783874E-06  0.90783148E-06 -0.32290365E-06 -0.51749790E-06
  0.77075510E-06 -0.53655785E-05  0.34666465E-05  0.38254794E-06 -0.71815638E-05
  0.93137315E-05  0.18246644E-04 -0.89823143E-06  0.16849147E-05  0.14018317E-04
  0.31954745E-06  0.23687709E-06 -0.60514849E-06  0.84049257E-06 -0.84980425E-07
 -0.15724903E-06  0.52280299E-07 -0.67526674E-06  0.25791510E-07  0.84388691E-06
  0.49327839E-06  0.50533023E-06 -0.69604753E-06  0.25309785E-06 -0.20024590E-06
 -0.10184648E-05 -0.10443721E-05  0.11434241E-07 -0.19379593E-06 -0.10168163E-06
 -0.12379996E-06  0.13298922E-05 -0.75598998E-06 -0.42061884E-06  0.22694590E-06
 -0.67072001E-06 -0.50813985E-06  0.89158110E-06  0.58839444E-06  0.42492181E-06
 -0.35676975E-06  0.80553575E-06  0.82024065E-07  0.39270874E-06  0.10656447E-06
  0.95539028E-06  0.21790002E-06 -0.95645113E-06 -0.17655486E-05  0.38553211E-06
 -0.63968410E-06 -0.73646477E-06 -0.35518611E-06 -0.37030886E-06  0.14435171E-06
  0.34676713E-05  0.21752828E-05  0.78812153E-05 -0.91470714E-05  0.17690057E-04
 -0.26902091E-04  0.55671662E-06  0.50848999E-05  0.67809472E-05 -0.76161059E-07
 -0.73118336E-06  0.18592175E-06  0.19921088E-06 -0.11967631E-05  0.13372503E-05
  0.70996061E-07  0.17631240E-06  0.76179363E-06  0.66233739E-05 -0.56139518E-05
 -0.32286460E-05  0.39416382E-04 -0.64906260E-05 -0.58083872E-05 -0.10766512E-05
  0.50328229E-05 -0.31155216E-06 -0.80440871E-06  0.16414167E-06 -0.89474163E-06
 -0.94263773E-06  0.14127668E-05 -0.30317159E-06 -0.20024662E-06 -0.15550457E-05
 -0.64048991E-06 -0.64354598E-05 -0.36762604E-05 -0.10946786E-04 -0.66419936E-05
 -0.12307252E-05  0.67895575E-05 -0.24533969E-05 -0.11009273E-04  0.13198744E-05
  0.32659957E-07 -0.91706685E-06  0.19912965E-06  0.36619833E-06  0.23085943E-06
  0.96063119E-07  0.63142217E-07 -0.36884137E-06  0.36238827E-06 -0.60954352E-05
  0.22889486E-05 -0.16247630E-06 -0.11920662E-05 -0.60049463E-05  0.11894640E-05
  0.23700962E-05  0.98404975E-06  0.39612278E-05  0.20115355E-06  0.10917467E-05
 -0.56101356E-06  0.50439307E-06  0.12662898E-06 -0.69929497E-06  0.30352507E-06
 -0.14602881E-06 -0.10950128E-07 -0.43292242E-07 -0.96484487E-06  0.23752211E-05
 -0.18333928E-05 -0.77734760E-06  0.32996349E-05 -0.17610142E-06 -0.72018610E-06
 -0.20232924E-05 -0.41333522E-06 -0.20857569E-06  0.32949816E-06  0.27823866E-05
 -0.30409943E-06  0.71242252E-06  0.66123954E-06  0.11432213E-04  0.46977901E-06
  0.15807191E-07 -0.37230529E-07 -0.51374723E-07 -0.32658407E-06  0.62667585E-06
 -0.13096615E-05  0.62157897E-07 -0.12102395E-05 -0.12588445E-05  0.94340765E-07
 -0.68203701E-06 -0.60437051E-06  0.10024651E-05 -0.55027828E-06  0.10866112E-05
 -0.36946964E-06 -0.14420434E-05  0.16528025E-06  0.25006943E-05 -0.57345761E-05
  0.79920814E-05  0.46192516E-05 -0.11594840E-05  0.10899220E-05 -0.73844039E-07
  0.75992540E-05  0.11069895E-04 -0.67783052E-07 -0.15259306E-06 -0.65127396E-06
 -0.14655252E-05 -0.52074331E-07  0.10616739E-05 -0.49579438E-06 -0.91400454E-06
 -0.39898352E-06 -0.79229625E-05  0.28226265E-07  0.87180219E-05  0.13198569E-04
 -0.75647207E-05 -0.42811226E-05  0.24190069E-04  0.11870291E-05  0.77854769E-05

 -0.44048244E-06 -0.10137735E-05  0.13066563E-07  0.83015148E-06  0.78095841E-06
 -0.35619366E-06 -0.16100471E-05  0.35278337E-06 -0.17196868E-06  0.12864998E-05
 -0.29941755E-06  0.22098141E-05  0.33271141E-06  0.15090588E-05  0.37682389E-07
  0.11406495E-05  0.68023533E-06 -0.76575689E-06 -0.56753784E-05 -0.12401960E-04
  0.23550500E-05  0.11936565E-04 -0.12379611E-04  0.13878530E-04 -0.12160085E-04
  0.12161447E-04 -0.24597393E-05  0.89318410E-06  0.62857309E-06 -0.39580001E-06
 -0.68787353E-06 -0.75162931E-06  0.10179261E-05  0.27515879E-07 -0.21458349E-05
 -0.14564800E-05  0.12749370E-05  0.13104435E-04 -0.13925317E-04  0.55775281E-08
 -0.47479337E-06  0.54151067E-05 -0.81215709E-05 -0.40021602E-05  0.18303432E-04
 -0.97788888E-06 -0.40956283E-06 -0.21243151E-05  0.20975995E-07  0.82752933E-06
  0.92593763E-06  0.88654214E-06 -0.30127151E-07  0.67451966E-06 -0.18951770E-06
 -0.18269030E-05  0.10864168E-05  0.78996423E-06 -0.17781558E-05 -0.11544304E-05
 -0.10913619E-05  0.19724347E-06 -0.67992044E-06  0.62277302E-06  0.29094341E-06
  0.55212057E-06 -0.28826045E-06 -0.66891307E-06  0.61588510E-06  0.24237591E-06
 -0.53342583E-06 -0.10231797E-05  0.33562967E-06 -0.53350504E-06  0.96085576E-06
  0.63210413E-06 -0.95103098E-07  0.41556206E-07  0.81118357E-06  0.77481031E-06
 -0.74045156E-06  0.40873178E-06  0.61706319E-06 -0.16780048E-05  0.22964485E-06
  0.34437256E-06 -0.89523778E-06  0.11198323E-05 -0.96096571E-07  0.20203481E-06
  0.53775188E-05 -0.32630241E-04 -0.12950481E-04  0.13584980E-04  0.30100406E-05
 -0.83147050E-05  0.79845760E-05 -0.68898056E-06 -0.15308130E-04 -0.13294379E-05
 -0.79985358E-06  0.11140823E-05  0.64884284E-06  0.20524544E-05  0.14569080E-05
  0.58791632E-06  0.94648174E-06  0.23069832E-06  0.91403765E-05  0.24769331E-05
 -0.10299792E-04 -0.12360818E-04 -0.47776333E-05  0.43417379E-05  0.17523870E-04
  0.81632259E-05  0.68316994E-06  0.13143738E-05  0.27421844E-05  0.17439234E-05
  0.82927451E-06 -0.29752704E-06  0.17215188E-05  0.87787904E-06  0.62666608E-06
 -0.20489982E-05 -0.38345285E-05  0.62506365E-05 -0.85368638E-05 -0.29997229E-06
 -0.30792341E-05  0.94606149E-05  0.48663676E-05 -0.21241905E-04 -0.13725327E-04
  0.15552549E-05 -0.49770815E-06  0.73374166E-06 -0.11715937E-05 -0.53363591E-06
  0.41376942E-05 -0.45034088E-06  0.70393716E-06 -0.21370430E-05 -0.11804347E-04
  0.58401908E-05  0.13317668E-04  0.26279849E-05  0.10103977E-06 -0.12027770E-04
 -0.13155709E-04  0.10243849E-04 -0.19246634E-04 -0.94452201E-06 -0.35117266E-05
 -0.19257571E-05  0.13623041E-05  0.11554630E-05 -0.16831256E-05 -0.69400894E-06
 -0.96273679E-06 -0.13590155E-05 -0.12705110E-05 -0.21990542E-06  0.44441413E-06
 -0.15037936E-05  0.50110636E-06  0.65473516E-05  0.11795007E-06 -0.28050219E-05
  0.12321982E-05  0.39207994E-06  0.32294979E-05  0.29364241E-05 -0.17218729E-05
  0.58752232E-05  0.98638647E-06  0.24972165E-05  0.46977901E-06  0.20923939E-04
  0.91361583E-06 -0.15448681E-05  0.17001168E-05  0.12729687E-05  0.14026504E-06
 -0.19543534E-08 -0.68725287E-06 -0.61108721E-06 -0.21786330E-05 -0.83897446E-06
  0.79388861E-06 -0.63306144E-06  0.71140933E-06  0.25108489E-05 -0.52238174E-06
  0.18865848E-05 -0.10932502E-05  0.32530495E-05  0.15218097E-04 -0.23018835E-04
  0.14613312E-04 -0.15915629E-05  0.35417292E-04 -0.32129517E-04 -0.14429512E-05
  0.27277867E-04  0.14981877E-06  0.13409469E-06 -0.93868217E-06 -0.90557303E-06
  0.10628537E-05 -0.15492501E-06  0.49646875E-06  0.40605233E-06  0.30720127E-06
  0.16790560E-05  0.26888022E-04  0.52529606E-04  0.85205222E-04  0.17284428E-03
 -0.46438496E-04  0.21491652E-04 -0.10520209E-04 -0.27288893E-05 -0.81828956E-04

  0.98193662E-06  0.92780670E-06 -0.51645597E-06  0.19939163E-05 -0.25598599E-05
 -0.97358817E-07  0.30190007E-06  0.12559983E-07 -0.19833387E-05 -0.69543109E-06
 -0.81807355E-06 -0.25870255E-05  0.14380832E-05 -0.13654435E-05 -0.20149711E-05
 -0.52914880E-07  0.32913660E-06  0.11810057E-06 -0.29520330E-04 -0.53256504E-04
 -0.13533949E-04  0.64209153E-04 -0.26188713E-04 -0.65663082E-05  0.17054551E-04
  0.24302352E-04 -0.10197391E-04 -0.72482339E-06 -0.13350131E-05 -0.27911310E-06
 -0.86112359E-06  0.60013849E-06  0.16694856E-05  0.13542732E-05  0.18022986E-05
  0.31001128E-06 -0.61924755E-05 -0.12757739E-06 -0.64750496E-05 -0.62922386E-05
 -0.28536566E-04 -0.15276149E-05 -0.21158913E-04 -0.79066012E-05 -0.12941229E-04
 -0.88163496E-06 -0.10314138E-05 -0.11385644E-05 -0.21587558E-06  0.13348198E-05
 -0.89516692E-06  0.47191895E-06 -0.93661923E-07  0.87562999E-06  0.30852359E-06
 -0.93950705E-06 -0.10656947E-05  0.15466501E-06 -0.15531328E-05  0.99450885E-06
  0.27277562E-05 -0.14699620E-06 -0.14586273E-05  0.13812862E-05  0.45712150E-06
  0.21357826E-06 -0.25806442E-05  0.63374001E-07  0.12524758E-06  0.19443832E-06
 -0.44614588E-06  0.21141326E-06  0.89713720E-06 -0.10530549E-05 -0.10779418E-05
 -0.11444531E-05 -0.96398450E-07 -0.12908031E-06  0.23264506E-06 -0.23146951E-06
 -0.16030580E-06 -0.36847301E-06  0.15457431E-05  0.10502437E-05 -0.58203168E-06
  0.57537670E-06  0.28668159E-07  0.10912397E-06  0.87750378E-06  0.14909823E-05
  0.72843945E-06 -0.51306995E-05  0.18908423E-04  0.99638218E-05 -0.15635461E-05
  0.25540430E-05 -0.82086823E-05 -0.87243585E-05  0.14889006E-04  0.50709445E-06
 -0.15597186E-06 -0.96996171E-06 -0.20168935E-05 -0.79849879E-06  0.41186280E-05
 -0.20714836E-06 -0.64361925E-06  0.50361167E-06 -0.94494526E-06 -0.66648747E-05
 -0.24863483E-04  0.19044885E-04 -0.23993739E-04  0.23328018E-04 -0.10507612E-04
 -0.28542456E-04 -0.51350197E-05  0.96762335E-06  0.28416525E-06 -0.82460388E-06
  0.31442407E-06 -0.13554232E-05 -0.64935224E-06 -0.71730546E-07  0.87702744E-06
  0.30652606E-06  0.33467870E-05 -0.12967628E-05 -0.11931757E-04  0.12977325E-04
  0.30317448E-04 -0.21752606E-04 -0.50673145E-05  0.10020117E-05 -0.84183350E-05
  0.11561218E-05 -0.45766624E-06  0.64887685E-06 -0.38661575E-06 -0.37826401E-06
  0.43031717E-06 -0.75684917E-06 -0.11705784E-05  0.10931611E-05 -0.18740785E-04
 -0.10802351E-04  0.86185204E-05 -0.79420663E-05  0.14133399E-04 -0.63678386E-06
  0.14681290E-05 -0.21177134E-04 -0.47881027E-05 -0.18079764E-05 -0.46580081E-07
 -0.84064269E-06  0.25478062E-05 -0.98871687E-06 -0.13594934E-05 -0.81571542E-06
  0.66204497E-07 -0.11751587E-05  0.13374940E-06  0.36524128E-05  0.14689742E-05
 -0.86603414E-06  0.37459875E-05 -0.16661650E-05 -0.39650306E-06  0.32119263E-06
 -0.19704703E-05 -0.48287705E-06  0.68952061E-06 -0.42392924E-06 -0.49340034E-06
  0.33310916E-06 -0.27485654E-07  0.28209380E-06  0.15807191E-07  0.91361583E-06
  0.25145115E-04  0.10709208E-05  0.29055794E-05 -0.14295759E-05  0.37606140E-06
 -0.26235226E-06 -0.89559054E-06 -0.81743107E-06  0.71419196E-06  0.39232403E-06
  0.61698348E-06  0.13295676E-05 -0.20394558E-05  0.85148910E-06 -0.34682120E-06
  0.18421739E-06 -0.21421251E-05  0.16364768E-05 -0.13229365E-05 -0.19539517E-05
 -0.26129846E-04  0.77963061E-05  0.12300591E-04  0.70062850E-05  0.59683338E-05
  0.12340036E-04  0.37986248E-06  0.16707812E-05  0.10612179E-05 -0.14825631E-05
  0.20992532E-05 -0.40136905E-06  0.81484654E-07 -0.44555706E-06  0.59520159E-06
 -0.35688480E-06  0.34334653E-05  0.79976924E-05  0.15272758E-04 -0.20197205E-04
 -0.43815547E-05  0.22570805E-05  0.18277165E-04  0.51275793E-06  0.10610226E-04

  0.64125407E-06  0.23303714E-05  0.27372129E-05  0.25644580E-05  0.32132563E-05
 -0.32092564E-05  0.13245106E-05 -0.22758573E-05 -0.42331884E-05 -0.14717009E-05
 -0.24928096E-05  0.89300192E-06  0.29671589E-06 -0.40537648E-05  0.26115914E-05
 -0.27714195E-05 -0.51286453E-06  0.47526516E-06  0.45096956E-04  0.54592902E-04
 -0.19828630E-04 -0.23001049E-04 -0.41810988E-04  0.11399398E-04  0.19873646E-06
 -0.16562035E-05  0.11257971E-04 -0.70828353E-06 -0.39716672E-05  0.64841385E-06
  0.48770742E-06 -0.18314389E-05 -0.20611406E-05  0.65855853E-06  0.58524448E-06
  0.22065219E-05  0.23576665E-05  0.11385232E-04  0.21720951E-04  0.74105920E-05
  0.13092895E-04 -0.16242959E-04  0.41142792E-05  0.51880157E-05  0.80106215E-05
 -0.11002416E-05  0.69072956E-06 -0.19514544E-05  0.84721902E-06 -0.39478759E-05
  0.26467300E-05  0.14120707E-06  0.10450635E-05  0.55095507E-06  0.32400261E-06
  0.48738552E-06 -0.60640372E-06 -0.11334387E-05  0.94270984E-05 -0.31757836E-05
  0.46675282E-06 -0.52824015E-06 -0.39632054E-07  0.12107371E-06  0.42036624E-05
  0.12074363E-05  0.40312454E-06  0.36128933E-05 -0.16179724E-05 -0.24309710E-05
  0.15525276E-06  0.33789012E-06 -0.27226022E-06  0.24628097E-05 -0.18063410E-06
  0.12201671E-05 -0.61834997E-06  0.12919105E-05 -0.17079940E-05  0.15889471E-06
 -0.20520919E-05 -0.44082657E-06 -0.15691249E-05 -0.12290102E-05 -0.31824421E-06
 -0.71653775E-05  0.41724234E-05 -0.12209852E-05 -0.47401753E-06  0.14052052E-05
 -0.22402341E-06  0.17810130E-04 -0.69132289E-05 -0.16695754E-04 -0.50938555E-05
  0.32328951E-04 -0.12107669E-04  0.34133677E-05 -0.97527735E-05 -0.62297012E-07
  0.10257127E-05  0.31854864E-06  0.18832631E-05  0.85040905E-06 -0.22777865E-05
  0.14689436E-06  0.46628432E-06 -0.19649361E-05  0.18668057E-04  0.13254621E-04
 -0.58319521E-05 -0.27606231E-04  0.26184021E-05  0.17053680E-04  0.10767478E-04
  0.86427682E-05 -0.20597398E-04  0.58201759E-06 -0.46352364E-05 -0.11879863E-06
 -0.10396829E-05 -0.12624154E-05  0.12454548E-05 -0.15976105E-06 -0.59775955E-06
 -0.19507898E-05  0.19754187E-05  0.19081096E-04  0.53109276E-05  0.41142479E-04
 -0.79096976E-04 -0.57717361E-05 -0.14469378E-04 -0.20369405E-05  0.46189620E-05
 -0.94027797E-06 -0.98613358E-06 -0.14789567E-06 -0.35067968E-06  0.15449989E-06
  0.14085665E-05 -0.15792001E-05  0.61441194E-06  0.16600752E-06  0.12244260E-05
 -0.16709481E-05 -0.26485765E-05  0.81163636E-05 -0.68335430E-05 -0.64506648E-05
 -0.11826291E-05  0.59584273E-06  0.60286514E-05  0.16273574E-06  0.58197595E-06
  0.17408037E-05 -0.48730275E-06  0.10727676E-05 -0.22979694E-06 -0.71327641E-06
  0.28870119E-06  0.14987731E-05  0.34526641E-05  0.14862699E-05  0.49574417E-06
 -0.77492607E-06  0.23412933E-05 -0.55145793E-06  0.51178879E-05 -0.75791950E-07
 -0.11199639E-05 -0.11265818E-05 -0.17152870E-05 -0.57958674E-06  0.11809022E-05
 -0.16601638E-05 -0.10159649E-06 -0.47457238E-06 -0.37230529E-07 -0.15448681E-05
  0.10709208E-05  0.40617222E-04  0.34345225E-06  0.10401336E-05  0.83283631E-06
 -0.10984037E-05  0.29962028E-06  0.14457227E-06  0.42172593E-05 -0.10111506E-06
 -0.17068029E-05 -0.92032329E-06 -0.10715041E-05  0.31780488E-05  0.19704267E-06
  0.13217509E-05 -0.44465778E-06  0.11283684E-05 -0.24813947E-05 -0.24513420E-05
  0.91721531E-05  0.97616093E-05 -0.67183078E-05  0.79920630E-05 -0.49576357E-04
 -0.16034438E-04  0.71935669E-04  0.99043645E-06  0.41433517E-05  0.78981921E-06
 -0.59886182E-06 -0.26059420E-05  0.28068290E-05  0.17598308E-05  0.54328754E-06
  0.25168668E-05 -0.27871844E-04 -0.60852806E-05 -0.26180793E-04 -0.11293562E-04
 -0.51747519E-05  0.26593772E-04 -0.11033223E-04  0.12704457E-04  0.11021128E-04

  0.14147598E-05  0.27907025E-05  0.82648633E-06  0.16011647E-05 -0.37632657E-05
  0.11810754E-05 -0.10494642E-05  0.82853455E-06 -0.39153130E-05 -0.12124869E-05
 -0.17055620E-05  0.67311231E-07  0.14410558E-06 -0.10169574E-05  0.17561667E-05
  0.25807001E-06 -0.13050957E-05  0.15949121E-05 -0.31716102E-04 -0.80224564E-05
 -0.71496203E-05  0.30928352E-04 -0.23236751E-04  0.19874438E-04 -0.20383290E-04
  0.11871473E-04  0.16138672E-04  0.72912767E-06 -0.23875252E-06  0.19619481E-05
  0.51732041E-06  0.15318971E-05  0.90527917E-06  0.62276807E-06  0.69671073E-06
  0.16362094E-05 -0.90238101E-05 -0.94135283E-05 -0.45144361E-06 -0.24145560E-05
  0.57739338E-04 -0.34173750E-04  0.96315421E-05 -0.58027840E-05  0.14605745E-04
 -0.82701349E-06 -0.14227580E-05 -0.98677626E-06  0.22498527E-06  0.15713830E-06
  0.50839656E-06  0.16907643E-06 -0.93096802E-06  0.14095359E-05 -0.12532277E-05
 -0.13319452E-05 -0.52505359E-06  0.90913730E-06 -0.10030285E-05 -0.16447343E-05
 -0.14878703E-05  0.10573681E-05 -0.60909340E-06  0.35174578E-07 -0.71758200E-06
  0.16176700E-06 -0.53969770E-06 -0.17022198E-05  0.21519192E-05  0.23696527E-06
 -0.59408719E-06  0.65817666E-07 -0.50455224E-06  0.14090544E-05  0.22171375E-05
 -0.15597281E-05  0.15494304E-05  0.16085973E-05  0.35673812E-06 -0.71802842E-06
  0.31362877E-06  0.14275484E-05  0.10184979E-05 -0.25609053E-05 -0.24347658E-05
  0.10318299E-06  0.13113947E-05  0.52488164E-06 -0.76340547E-06  0.10910005E-06
  0.20607267E-04 -0.57372539E-05 -0.20671333E-04  0.37083543E-05 -0.11672753E-05
 -0.29847897E-04  0.15903899E-04  0.27133102E-04 -0.13829536E-04  0.10096666E-05
 -0.11813777E-05 -0.25589586E-05  0.11051613E-05 -0.21925222E-05 -0.84295787E-06
  0.12190469E-06  0.37694085E-05 -0.30200342E-06 -0.22049719E-04  0.97767846E-05
  0.22560139E-04  0.29209027E-04 -0.21799975E-04 -0.67346773E-04  0.46773145E-05
  0.48158808E-05 -0.22349183E-04 -0.77873352E-07  0.57995025E-06  0.22169296E-05
 -0.13813297E-05  0.62560488E-06 -0.18983814E-06  0.63711707E-06  0.43682263E-06
 -0.14660343E-05 -0.83890324E-05 -0.11693873E-04 -0.15773554E-04  0.11625855E-04
  0.48498415E-04 -0.19441283E-04 -0.28953561E-04 -0.20165660E-04  0.19852961E-04
  0.70668430E-07 -0.15538658E-05  0.94055126E-06 -0.71904846E-06  0.43949580E-06
  0.16736859E-05  0.94897170E-06  0.35357205E-07 -0.81936766E-06 -0.40852794E-05
 -0.61242537E-05 -0.27424896E-05 -0.11831201E-04  0.41408256E-05 -0.12951280E-04
  0.10265548E-05 -0.84104196E-05 -0.10989564E-04 -0.11021663E-05 -0.53244614E-06
 -0.40175714E-05  0.14452505E-05 -0.24484526E-06 -0.24866738E-05 -0.12548634E-05
 -0.47713399E-06  0.39877579E-06  0.59489936E-06  0.13032021E-05  0.12546758E-05
  0.23208471E-06 -0.47767642E-06  0.64081235E-06 -0.17531483E-05 -0.89522376E-06
 -0.64989110E-06 -0.33832925E-06 -0.55869075E-06 -0.40828018E-06  0.91090635E-06
  0.61190092E-06 -0.12847232E-05  0.12794327E-05 -0.51374723E-07  0.17001168E-05
  0.29055794E-05  0.34345225E-06  0.32238212E-04 -0.97839512E-06  0.64631233E-06
 -0.11571122E-05 -0.32945401E-06 -0.13005559E-05  0.47740486E-06  0.82454821E-06
 -0.93330905E-06 -0.74342295E-06 -0.22518334E-05  0.98069577E-06  0.42861205E-06
  0.26366102E-05 -0.66452671E-06  0.74327377E-06 -0.17268433E-04  0.13093651E-06
  0.18461663E-05  0.15936532E-04  0.92695353E-05  0.13298979E-04  0.31806709E-05
  0.11831978E-04  0.35422305E-04 -0.20641603E-05 -0.14687499E-05  0.14851196E-05
  0.66759629E-06  0.52304917E-07 -0.37905910E-06 -0.72025601E-06  0.20434254E-05
  0.28341586E-06 -0.93945234E-05 -0.17926716E-04  0.34288017E-04  0.43321789E-05
 -0.40624570E-05 -0.16508624E-04  0.16196140E-04 -0.95717065E-05  0.22124613E-04

 -0.14846266E-05 -0.40431955E-05 -0.10297234E-05 -0.33880594E-05  0.36482610E-05
  0.14515125E-05  0.80559028E-06 -0.68873275E-06  0.30830480E-05 -0.16555996E-06
  0.25929841E-05  0.16054584E-05 -0.17292032E-05  0.97427249E-06 -0.11916449E-05
  0.17439188E-05 -0.65583307E-06  0.71782869E-06  0.11579924E-04  0.19988826E-04
 -0.14697567E-05  0.10473448E-03 -0.37362930E-04 -0.10892916E-04 -0.17981863E-04
 -0.14583003E-05 -0.17977680E-04 -0.18939833E-05  0.78180569E-06  0.46906419E-07
 -0.21244659E-05  0.11743241E-06  0.37783443E-05 -0.25388327E-06 -0.93488100E-08
 -0.38994827E-06  0.79866856E-05 -0.98370213E-05 -0.66826255E-05  0.19395209E-04
 -0.27850462E-04  0.10687354E-04 -0.17015877E-04  0.17135082E-04 -0.15054876E-04
 -0.96171769E-06 -0.10038465E-05  0.56076756E-06 -0.84579788E-06  0.13299649E-05
 -0.91749508E-06  0.10163701E-05 -0.12608623E-05 -0.59274148E-06 -0.97083153E-06
 -0.14652003E-06  0.14261863E-05  0.37506086E-05  0.20360635E-05 -0.11967366E-06
  0.74071185E-07  0.12417923E-05  0.96730212E-06  0.34115559E-05  0.61450573E-06
  0.15446097E-05  0.49765415E-06 -0.15692030E-06  0.18310231E-05 -0.32867736E-06
  0.31337092E-06 -0.13927242E-06 -0.62678909E-06  0.16572241E-06 -0.38711557E-07
 -0.29068033E-05  0.15449974E-05  0.29453128E-06  0.18476460E-06  0.24548016E-06
  0.43062044E-07  0.74380069E-06 -0.44491567E-06 -0.59181487E-06 -0.26207031E-05
  0.11997475E-05  0.18553607E-05 -0.84658511E-06 -0.54717957E-06  0.38304769E-06
  0.49789474E-05 -0.45580772E-05 -0.86220171E-05  0.20895932E-04 -0.12584585E-04
 -0.45855138E-05 -0.37943817E-05 -0.11281101E-05 -0.63597741E-06 -0.72176921E-06
 -0.55257938E-06 -0.13613170E-05  0.77992699E-06  0.10947451E-05 -0.13789780E-05
  0.32079529E-06  0.50869758E-06  0.11976578E-05 -0.40888533E-05 -0.15815927E-04
 -0.14543135E-04  0.60723256E-04 -0.43031032E-05 -0.20706898E-04  0.68172921E-05
  0.19600893E-04 -0.11704876E-04 -0.65212020E-06 -0.74589132E-06  0.94044746E-07
 -0.14674521E-05  0.99562975E-06  0.90431901E-06  0.12568601E-05  0.35238691E-06
 -0.16029254E-05 -0.10425904E-04  0.39548147E-05  0.82403085E-05  0.38094575E-04
 -0.45408740E-04  0.94369180E-05 -0.59588399E-05 -0.15283448E-04  0.10092252E-04
  0.46898850E-06  0.17005751E-05  0.16253964E-06  0.38197286E-06  0.20401130E-06
  0.14718496E-05 -0.64239332E-06  0.11906787E-05  0.31425025E-06 -0.62550944E-05
 -0.33323807E-05  0.50959344E-05 -0.12543186E-04  0.29422125E-05  0.10497219E-04
  0.41088779E-05  0.31632663E-05  0.36624124E-05 -0.90295590E-06  0.47228394E-07
  0.98676185E-06 -0.30480101E-05  0.27733564E-05  0.16942887E-05 -0.65393252E-06
 -0.16196139E-05 -0.94849600E-06  0.14828254E-05 -0.65112983E-06  0.19071281E-06
 -0.41284005E-05  0.16458917E-05  0.18232134E-05  0.36634740E-05  0.27521438E-06
  0.37893541E-06  0.10027757E-05  0.54495339E-07  0.33087464E-06 -0.69900463E-06
  0.12069450E-05  0.97309598E-06 -0.60533944E-06 -0.32658407E-06  0.12729687E-05
 -0.14295759E-05  0.10401336E-05 -0.97839512E-06  0.36573893E-04 -0.14471576E-04
 -0.11812470E-04  0.33924543E-06  0.22982129E-05 -0.13687785E-05  0.24667370E-05
  0.68103495E-06  0.49026982E-06  0.75701300E-06 -0.11915181E-05 -0.28771939E-06
  0.19886794E-05  0.22870323E-06  0.15893289E-05  0.66471440E-05  0.21839743E-04
 -0.25181213E-05  0.53314941E-05 -0.31508066E-04  0.14558247E-04  0.25216279E-04
  0.28733149E-04 -0.26321697E-04 -0.14107960E-05  0.32687713E-07  0.42769618E-06
  0.14231637E-05  0.28708202E-06 -0.16828684E-06  0.13892017E-05 -0.20722944E-06
  0.27836348E-06  0.18883249E-04  0.47717201E-05  0.14344548E-04 -0.21170359E-04
  0.93975317E-05  0.18172717E-04 -0.22519462E-05 -0.15755129E-04 -0.23060129E-04

  0.65029784E-06  0.42167712E-05  0.38359781E-05  0.31762973E-05  0.53109638E-06
 -0.29589195E-05  0.39753925E-06 -0.11575386E-05 -0.23521859E-05 -0.10422930E-05
 -0.19803310E-06  0.67251073E-06 -0.45273079E-07  0.44296567E-06  0.12371098E-05
 -0.25918542E-05  0.41510105E-06  0.21703676E-05  0.42953154E-04  0.14816776E-05
 -0.15285421E-04  0.90019285E-05 -0.25373845E-04 -0.70291219E-05 -0.72635538E-04
 -0.19471690E-04  0.16239559E-04  0.18401168E-05 -0.20429073E-05  0.53947062E-07
  0.75339772E-06 -0.11063903E-05  0.27637604E-06  0.49406461E-06 -0.20849209E-05
 -0.20119656E-05  0.90671734E-05  0.15315545E-04 -0.16227823E-05  0.16859509E-04
 -0.71894083E-05 -0.14178406E-04  0.11183142E-04  0.48801133E-05  0.52616765E-04
 -0.19839442E-05  0.32166703E-05 -0.17336213E-05  0.12672227E-05 -0.59660939E-05
  0.45452759E-05 -0.13406699E-05 -0.13134564E-06 -0.34305122E-05 -0.29346075E-06
 -0.96363088E-05  0.68327016E-06  0.32474125E-05 -0.95968751E-05  0.20944864E-05
 -0.13869963E-05 -0.19162242E-05 -0.49447594E-06 -0.23061950E-06  0.87621113E-06
 -0.82437689E-06 -0.16871664E-06  0.92060199E-05 -0.95622497E-06  0.11978323E-05
  0.16524332E-06  0.14656374E-05 -0.92773437E-06 -0.63298963E-07  0.10850710E-05
  0.23087358E-05 -0.10764621E-04  0.80781923E-06  0.71413081E-07  0.70162934E-06
 -0.11237753E-05 -0.19685759E-05 -0.29310836E-05 -0.10691356E-05 -0.67319392E-07
 -0.45936693E-05  0.25450412E-05 -0.96699377E-06  0.56154387E-06  0.42514257E-05
  0.48217889E-05  0.27419092E-04 -0.39867744E-05 -0.12424047E-04  0.12147335E-04
  0.73200537E-05 -0.82121839E-05  0.84261613E-05  0.13903375E-04  0.38956334E-06
  0.16273673E-05  0.18117656E-05  0.15816320E-05  0.39079967E-05  0.57101485E-07
  0.18952626E-05  0.14466460E-05 -0.27981949E-05  0.14647589E-04  0.81900139E-05
  0.12842967E-04 -0.20934125E-04 -0.27289653E-04  0.57789811E-04 -0.19231671E-04
  0.36400039E-05  0.29652356E-04 -0.92588083E-07 -0.55534520E-05 -0.63568101E-06
 -0.99806009E-06 -0.95699106E-07 -0.73232053E-06 -0.16757867E-06 -0.15053634E-06
  0.10216383E-05 -0.31099340E-05 -0.32582279E-04  0.12203393E-04 -0.63023814E-05
  0.10263430E-03 -0.21434458E-04 -0.54866447E-04  0.27488005E-04  0.12507847E-04
  0.27287440E-05 -0.35219170E-06 -0.55734048E-06  0.22972769E-06 -0.47083605E-05
  0.13432338E-05  0.94562430E-06  0.84518253E-07 -0.10907064E-05 -0.52750291E-05
 -0.70093345E-05  0.42671826E-05  0.30545935E-05 -0.33784980E-05  0.26920576E-05
  0.17739343E-04 -0.58139395E-05 -0.13281720E-04 -0.88041007E-06  0.72777539E-06
 -0.10746567E-05  0.16746715E-05 -0.54448512E-05  0.18829893E-05  0.15370901E-05
 -0.81302920E-06 -0.47309953E-06 -0.50095147E-05 -0.39234886E-05  0.13245927E-05
  0.92568229E-06 -0.47035424E-06  0.10451611E-05 -0.52909795E-05  0.26333472E-05
 -0.23408403E-07  0.82367672E-07 -0.30515616E-06 -0.43535569E-06  0.11357248E-05
 -0.46375468E-05  0.17632838E-05  0.77091554E-06  0.62667585E-06  0.14026504E-06
  0.37606140E-06  0.83283631E-06  0.64631233E-06 -0.14471576E-04  0.63661982E-04
 -0.13595228E-04  0.31640284E-05 -0.75225487E-06  0.23566813E-05 -0.14541448E-05
  0.27959665E-05 -0.21826803E-05 -0.23141449E-05  0.79365153E-05 -0.13009519E-05
  0.18959677E-05 -0.63494846E-06  0.12224466E-06 -0.63672795E-05 -0.18137183E-04
  0.21323281E-04  0.18183386E-05  0.48749985E-04 -0.39352952E-04 -0.15011370E-04
  0.15824381E-05  0.79996929E-05 -0.17377899E-05  0.24802098E-05 -0.37189952E-06
 -0.27160666E-06  0.68701233E-05  0.79699929E-07  0.38401521E-05  0.63000659E-06
  0.27149671E-05  0.15601167E-04 -0.20657775E-04  0.37002894E-05  0.45428879E-04
 -0.34585098E-04  0.54709711E-05  0.10328747E-04  0.33657261E-04 -0.17832740E-04

 -0.45645523E-06  0.13369820E-05 -0.25202967E-05  0.84155530E-06 -0.25986641E-05
  0.19709738E-05 -0.15853543E-05 -0.79630887E-07 -0.18701371E-05  0.23244787E-05
 -0.38965741E-06 -0.32468052E-06 -0.95462412E-07  0.62443172E-06  0.82122728E-06
 -0.11567098E-06 -0.84015300E-06  0.40020553E-06 -0.11692688E-04 -0.60289051E-05
  0.71725024E-05  0.98710639E-05 -0.60270517E-05  0.33349996E-04  0.18925388E-04
 -0.10167775E-04  0.64717094E-05  0.18607555E-06  0.82308719E-06 -0.33902977E-05
  0.19860145E-05  0.18830888E-05 -0.63663605E-05 -0.24599717E-06 -0.16784632E-05
  0.11952407E-05  0.10818062E-05  0.57134202E-05  0.21400831E-05  0.88388860E-05
 -0.89529148E-05  0.37550049E-04  0.61095734E-05  0.16100238E-04  0.18190184E-04
  0.21685248E-05 -0.13015367E-05  0.24158379E-05 -0.20306755E-06  0.42458827E-05
 -0.12469130E-05 -0.75231386E-06  0.16888099E-05  0.32735124E-05 -0.20307781E-06
  0.39426239E-05 -0.17564069E-05 -0.13507416E-05  0.27790103E-05 -0.29299028E-05
  0.44019795E-06  0.19179042E-05 -0.21859082E-05  0.47163522E-06 -0.56882832E-06
 -0.30886927E-06  0.80699801E-06 -0.12482772E-05 -0.37240877E-05 -0.90451550E-07
  0.78041428E-06 -0.11968629E-05 -0.62729665E-06 -0.15219784E-05  0.10088103E-05
  0.11237902E-05  0.95670711E-06 -0.20513356E-05 -0.33167724E-06 -0.62555587E-06
 -0.54392611E-06  0.22310142E-05  0.76183925E-06  0.20829813E-05  0.17663518E-05
  0.12252833E-05 -0.37840581E-06  0.42866617E-06 -0.17981249E-05 -0.47243905E-06
 -0.11997410E-04 -0.51300793E-05 -0.22919491E-04  0.14553197E-04 -0.17360320E-04
  0.18368780E-04  0.14020072E-04 -0.19790315E-04  0.12213236E-04  0.27757572E-06
 -0.28181953E-05  0.21300042E-05 -0.24586853E-05  0.11873949E-05 -0.14726851E-05
 -0.47536617E-06 -0.25646893E-05  0.19356884E-05 -0.13922451E-04 -0.11579371E-04
 -0.31651472E-04  0.26251410E-04  0.25830624E-04 -0.10366633E-03  0.73602526E-06
  0.15711654E-04 -0.14112639E-04  0.20462883E-06 -0.65341759E-06  0.14926723E-05
  0.42955911E-06 -0.10658686E-06 -0.62407403E-06  0.46483157E-06 -0.54857157E-06
  0.30081906E-05  0.17772185E-05  0.67157633E-05  0.67145679E-05 -0.21117520E-05
 -0.18814764E-04 -0.19288824E-05  0.47348940E-05  0.23028721E-04 -0.13492024E-04
  0.28116037E-06  0.12306194E-05 -0.64446319E-06  0.11820969E-05  0.63634248E-06
 -0.17164816E-06  0.22373874E-06  0.52866941E-06 -0.19859916E-05  0.55061727E-05
  0.16565210E-04 -0.91921972E-05 -0.12250864E-05  0.11990815E-04  0.10937239E-04
 -0.64031604E-05  0.28756013E-05 -0.13453840E-04 -0.12460951E-06 -0.15629335E-05
  0.31984534E-05  0.20224577E-05  0.19593221E-06 -0.14347758E-05  0.26128937E-06
  0.23406438E-06  0.62592319E-06  0.43889485E-06  0.25657640E-05 -0.24954847E-06
  0.22658255E-05  0.12451241E-05 -0.16041467E-05  0.11102714E-05  0.26870017E-06
  0.92465901E-06  0.91190239E-06  0.28170635E-06 -0.10570907E-05  0.52097717E-06
  0.22639509E-05 -0.21507406E-05 -0.29895611E-06 -0.13096615E-05 -0.19543534E-08
 -0.26235226E-06 -0.10984037E-05 -0.11571122E-05 -0.11812470E-04 -0.13595228E-04
  0.47259645E-04 -0.83053892E-06  0.91064064E-06  0.17141108E-06 -0.16402097E-06
 -0.37963927E-06  0.14838529E-06  0.16495654E-05 -0.12839609E-05  0.61838382E-06
 -0.20192329E-05  0.28238272E-05 -0.12135959E-05  0.16463951E-05 -0.15592988E-04
 -0.14773148E-04 -0.11106856E-04 -0.67278122E-05  0.49796360E-04  0.57717000E-05
 -0.89620787E-05 -0.15950454E-04  0.21753501E-05 -0.10591765E-05 -0.12250317E-05
 -0.10238664E-06 -0.11515100E-06  0.88716162E-06 -0.17709994E-05 -0.50603111E-06
  0.14887214E-06 -0.11567192E-04  0.63402158E-05  0.65442193E-05  0.28773157E-04
  0.53832784E-05 -0.46716040E-04 -0.13569543E-04 -0.26513648E-05 -0.96488304E-05

 -0.13186414E-05 -0.27822972E-08  0.14970466E-06  0.98120813E-06  0.30404203E-05
 -0.13422732E-05  0.85821430E-06  0.15935932E-05 -0.24164886E-06 -0.40744818E-06
 -0.63050909E-06 -0.27512769E-05 -0.14916430E-06  0.17540723E-05 -0.20697844E-05
 -0.27900591E-06  0.17514859E-06 -0.84551338E-06  0.21801026E-07 -0.26880417E-04
  0.61264779E-07  0.67769152E-04 -0.10452609E-04 -0.16188484E-04  0.30639782E-05
 -0.75033828E-05  0.20099987E-05  0.71684139E-06  0.12903474E-05  0.61604522E-06
  0.63283281E-06 -0.14405761E-05  0.53251981E-06 -0.27606165E-05  0.14902365E-06
 -0.88604662E-06  0.75930556E-05  0.84063183E-05  0.97522655E-05  0.13039990E-04
 -0.31845334E-04  0.14659888E-05 -0.11493909E-04  0.40045151E-05 -0.11412929E-05
 -0.10836253E-05  0.20203675E-05 -0.62418533E-07 -0.16804148E-05 -0.13116104E-05
 -0.29383992E-06 -0.50823256E-07 -0.41434581E-06 -0.90182721E-06 -0.11753917E-05
 -0.18909882E-05  0.24284994E-06 -0.65221635E-06 -0.55567756E-06  0.78842708E-06
  0.12183836E-05  0.38760489E-06  0.28022304E-06 -0.66778743E-07  0.23045855E-05
 -0.27592616E-06 -0.20984433E-06  0.12366599E-05 -0.28411880E-06  0.27165299E-06
  0.17325829E-06 -0.18074519E-06 -0.10818297E-05 -0.99531572E-06 -0.51606411E-06
 -0.69485603E-06 -0.13146763E-06 -0.60729309E-06 -0.24965851E-05  0.49215487E-06
 -0.44715773E-06  0.28183444E-06 -0.44010975E-06  0.16086285E-06 -0.23948053E-06
 -0.39266035E-06  0.35491436E-06 -0.87549644E-06  0.69161817E-06  0.12650403E-05
 -0.14418950E-05  0.46812164E-07  0.95519005E-05 -0.90407007E-05 -0.25470920E-05
  0.10296947E-04 -0.87756169E-05  0.12562106E-05 -0.20857162E-05 -0.32327154E-06
  0.19329387E-06  0.61709035E-06 -0.31718123E-06  0.13688530E-05  0.21209419E-06
 -0.79793953E-06  0.72382449E-07 -0.61618294E-06  0.74082334E-05  0.28214750E-05
  0.93588037E-05  0.92573220E-05 -0.29582821E-05 -0.21079798E-05  0.19266612E-04
  0.30487226E-05  0.77870223E-05 -0.20615798E-06  0.57396908E-06  0.16408127E-06
 -0.29361243E-06 -0.11810709E-05  0.37001122E-06 -0.13751219E-05 -0.57633251E-06
  0.49864372E-06 -0.22926733E-05  0.84614600E-05  0.79643388E-05 -0.20501346E-04
  0.93843676E-05 -0.25991480E-05  0.52373096E-05  0.19530814E-04 -0.13972945E-04
  0.34562445E-06  0.11750067E-05  0.94287683E-06 -0.21956503E-06  0.89000097E-06
 -0.51001171E-06 -0.12521076E-05 -0.84583214E-06 -0.13188423E-05 -0.58456492E-05
  0.33162222E-05  0.12027782E-04 -0.15336409E-05  0.14588531E-04 -0.17213287E-05
  0.33518628E-05 -0.65866808E-05 -0.39028467E-05 -0.19362310E-06 -0.60999836E-06
  0.37889655E-06  0.14009671E-05 -0.57707276E-06  0.53579650E-06 -0.27219536E-05
 -0.89417223E-06 -0.16437410E-05 -0.14312869E-05 -0.35367528E-05  0.15250283E-05
  0.27108081E-05 -0.47017596E-05  0.25661530E-05 -0.16152241E-05  0.74579236E-06
  0.11819545E-05  0.34229029E-06 -0.18104937E-06 -0.19745247E-06  0.37105782E-07
  0.13156793E-06 -0.65060069E-06 -0.15028554E-05  0.62157897E-07 -0.68725287E-06
 -0.89559054E-06  0.29962028E-06 -0.32945401E-06  0.33924543E-06  0.31640284E-05
 -0.83053892E-06  0.22893715E-04 -0.21678846E-06  0.16798618E-05 -0.16642087E-05
  0.17086386E-06 -0.32682086E-07 -0.11517245E-05  0.42115348E-05 -0.58896019E-07
 -0.69455782E-06 -0.33817483E-06  0.20616318E-05  0.18475553E-04  0.20363472E-05
 -0.17751948E-04  0.53057512E-05  0.37851165E-04  0.87310257E-05 -0.20614995E-04
 -0.17680738E-04 -0.16763976E-04  0.10817389E-05 -0.72857004E-06 -0.90520460E-07
 -0.34468177E-06  0.11511756E-05  0.21017932E-06  0.20636533E-05  0.51057076E-07
  0.43459818E-06 -0.11898012E-04  0.13300443E-04 -0.10573764E-05  0.12934832E-05
  0.16044175E-04 -0.48254454E-05 -0.12131232E-04  0.98533283E-05 -0.57705025E-05

 -0.10176677E-05  0.10437000E-05 -0.15284925E-05 -0.51972313E-06  0.43236337E-07
  0.10117745E-06  0.20725403E-05 -0.72492986E-06 -0.17430211E-05  0.28509596E-07
  0.22293576E-05  0.18492178E-05 -0.10633087E-05  0.12018041E-05 -0.57765167E-06
  0.22129197E-06 -0.74619116E-06  0.13755290E-05 -0.24443369E-06  0.16736190E-04
 -0.25424817E-05  0.46518906E-04 -0.24383809E-04 -0.17814711E-04 -0.21280476E-04
  0.18902997E-04 -0.44643114E-05 -0.97050775E-06 -0.70114262E-06 -0.61102581E-06
  0.50217632E-06 -0.37416173E-06 -0.15894510E-05  0.11883089E-05 -0.13381624E-05
 -0.14807168E-05  0.18181120E-05 -0.84260250E-06  0.16791158E-05  0.21046644E-04
 -0.40799288E-05  0.31267743E-05  0.85967054E-05  0.16882881E-04 -0.46782318E-05
  0.12929746E-05 -0.37988054E-06  0.23234899E-05 -0.20267165E-05 -0.50079483E-06
  0.24192435E-05 -0.70354630E-06 -0.10367625E-05 -0.15949933E-05  0.61137757E-06
  0.28518081E-06 -0.56676085E-06  0.10451194E-05 -0.72006730E-06  0.13689135E-05
  0.48746624E-06 -0.61744620E-06 -0.50383024E-06  0.82773295E-06 -0.52712666E-06
  0.13549348E-05  0.12102093E-05 -0.44608512E-06  0.44325500E-06 -0.12727973E-06
 -0.11054280E-05  0.65587995E-06  0.21409820E-06  0.20021926E-05 -0.10862090E-05
  0.33161715E-06  0.11848386E-05 -0.10221498E-05 -0.16265436E-06 -0.26723982E-05
  0.37570178E-06  0.74817765E-06  0.11267727E-05  0.12823815E-05  0.41034894E-06
 -0.68133595E-06 -0.96875380E-06  0.49908447E-06 -0.63322970E-06 -0.12876895E-06
 -0.64092590E-05 -0.12765892E-04 -0.10411087E-04  0.49524727E-07  0.30495453E-05
 -0.25946917E-04 -0.69082760E-05  0.49917137E-05  0.24448139E-04  0.69157116E-06
  0.13792605E-06  0.16160561E-05 -0.77692292E-07  0.18060031E-05 -0.24836808E-05
 -0.94726783E-07 -0.21430367E-05  0.81814500E-06 -0.60649973E-05  0.71052044E-05
 -0.12196030E-04  0.28157780E-04  0.38764196E-05  0.18047405E-04 -0.48196110E-05
 -0.25397386E-04  0.97367657E-05  0.62381014E-06  0.97279181E-07 -0.70640066E-06
  0.14929755E-05 -0.52943423E-06  0.46526585E-06 -0.52276125E-06 -0.14459536E-05
  0.20812412E-05  0.29913351E-05  0.99474385E-05  0.97876493E-05 -0.99742644E-05
  0.91658522E-05  0.27075989E-04  0.73139467E-05 -0.44710386E-05  0.46392346E-06
  0.20665299E-06  0.30902239E-06  0.62249999E-06  0.56224381E-06  0.50083886E-06
  0.42633408E-06 -0.52360347E-06  0.21559213E-06  0.57183248E-06  0.65452829E-05
  0.81340085E-05 -0.72750551E-06 -0.66979705E-05  0.38242799E-05  0.67558303E-05
 -0.62862440E-05  0.41304826E-05 -0.36798240E-06  0.98562117E-06 -0.36695115E-06
  0.82683955E-06 -0.15800458E-05 -0.42679669E-06  0.40809960E-06 -0.48752954E-06
  0.45706809E-06  0.31172660E-06  0.91328699E-07  0.12397872E-05 -0.14424013E-05
  0.42662870E-06  0.12927426E-05 -0.55707152E-06  0.43190846E-06 -0.59115789E-06
  0.14135185E-05 -0.35349523E-06 -0.41582188E-07  0.13121379E-05  0.54201452E-07
  0.43204752E-06 -0.16152514E-05  0.56943598E-06 -0.12102395E-05 -0.61108721E-06
 -0.81743107E-06  0.14457227E-06 -0.13005559E-05  0.22982129E-05 -0.75225487E-06
  0.91064064E-06 -0.21678846E-06  0.19519546E-04  0.11481496E-05  0.39407042E-06
  0.15459116E-06  0.12394128E-05 -0.16742121E-06 -0.11659096E-05  0.24658399E-05
  0.18633378E-06  0.46143512E-06  0.39233947E-06 -0.49414535E-05 -0.12630683E-04
  0.20730153E-06 -0.19306934E-05 -0.15582785E-04  0.85799284E-04 -0.36521392E-05
 -0.20650630E-04 -0.12612230E-05 -0.43921452E-06 -0.93416751E-07  0.96571808E-06
 -0.12218890E-06  0.75847346E-06 -0.36709078E-06  0.50320938E-07 -0.39291912E-06
 -0.56225082E-06  0.11769879E-04  0.34407633E-05 -0.14611688E-04 -0.37922579E-04
  0.13475446E-04  0.17521759E-04 -0.78348021E-05 -0.16449992E-04 -0.13378293E-04

  0.48458685E-06  0.41375334E-05  0.49475035E-05  0.31544756E-05 -0.37390991E-05
 -0.14062048E-05 -0.24715091E-06  0.31034221E-06 -0.44355613E-05 -0.23611504E-05
  0.14159050E-05 -0.60239032E-06  0.19525845E-07 -0.12935083E-05  0.91134966E-06
 -0.17654033E-05 -0.11366087E-05 -0.61469921E-06  0.97793943E-05 -0.83899933E-05
  0.12340484E-04 -0.16041107E-04 -0.13556775E-04 -0.16045814E-04 -0.95902315E-05
 -0.12347319E-04  0.10157413E-04  0.86985247E-06 -0.14608655E-05  0.15137093E-05
  0.23293075E-05 -0.11214532E-05 -0.45870156E-05 -0.12895260E-05  0.13506726E-05
 -0.18434580E-05  0.35748833E-05 -0.23427922E-05  0.12031308E-04 -0.20061048E-05
  0.34009636E-04 -0.21583310E-04  0.22052940E-04 -0.76590897E-05 -0.12679840E-04
 -0.60523106E-06  0.10105878E-05 -0.16144065E-05 -0.10237004E-05 -0.22961634E-05
  0.39557449E-05 -0.49989253E-06 -0.20238447E-05  0.61975194E-06 -0.92778197E-06
 -0.12030952E-05 -0.19410884E-05  0.16034334E-05 -0.46038335E-06 -0.28093945E-05
  0.31061966E-06 -0.13395097E-05 -0.81385861E-06 -0.74515261E-06 -0.42349815E-06
 -0.82852663E-06  0.11123911E-05  0.94262400E-06 -0.87526725E-06 -0.10800608E-06
  0.34295696E-08  0.95949228E-06 -0.65825566E-06  0.97078874E-07  0.99148998E-06
  0.92807288E-06 -0.29983155E-05  0.23863682E-05 -0.10770454E-05 -0.28367416E-06
 -0.36320620E-05  0.75405200E-06  0.27381844E-06  0.14176589E-06 -0.13798226E-06
 -0.36661788E-05  0.24027197E-07  0.46041018E-06 -0.73675388E-06  0.79394855E-06
 -0.22410246E-05  0.12357760E-04 -0.48368397E-05 -0.16450080E-05  0.32790870E-04
  0.11450291E-04 -0.17752879E-04  0.11065908E-05 -0.87954366E-05 -0.68199039E-06
  0.17849479E-05  0.10830760E-05  0.59678922E-07  0.16134294E-05  0.45752607E-06
  0.61684874E-06  0.24886302E-06 -0.22183482E-05  0.30823498E-04  0.16368704E-04
  0.94719497E-05 -0.20256953E-04 -0.14440091E-04  0.28791769E-04  0.11527049E-04
  0.92162929E-05  0.59807141E-05 -0.14073068E-06 -0.31413503E-06 -0.27531575E-05
  0.67312113E-06  0.43144985E-06 -0.19580206E-05  0.86260044E-06  0.27148695E-06
 -0.14921680E-05  0.12040807E-04 -0.15599687E-04  0.18560324E-04 -0.69630107E-05
  0.28970078E-04  0.24795760E-04  0.17963344E-05  0.62094373E-05 -0.34412510E-05
 -0.15160414E-06  0.31985222E-05 -0.86413193E-07 -0.63013708E-06 -0.16539728E-06
  0.47462512E-06 -0.49952359E-06 -0.10716959E-05  0.83704560E-06  0.83802416E-05
 -0.20526417E-04  0.23801151E-05  0.11560904E-05 -0.14471767E-04 -0.89085627E-05
 -0.18188816E-04 -0.41418908E-05  0.31374797E-04  0.31901743E-06 -0.23381833E-06
 -0.48210562E-06 -0.13729027E-05  0.16416140E-05  0.74393739E-06 -0.73229659E-06
  0.16151556E-05 -0.15571978E-05  0.16985604E-05  0.16166658E-05 -0.85863456E-07
  0.71723675E-06  0.33076930E-05 -0.20381323E-05  0.16395345E-05  0.29915877E-05
 -0.21208971E-05 -0.33366525E-07  0.49671887E-06 -0.45155634E-06 -0.97818436E-06
  0.19434266E-05 -0.56435735E-07 -0.13604708E-05 -0.12588445E-05 -0.21786330E-05
  0.71419196E-06  0.42172593E-05  0.47740486E-06 -0.13687785E-05  0.23566813E-05
  0.17141108E-06  0.16798618E-05  0.11481496E-05  0.32895243E-04  0.25246223E-05
  0.70070761E-06  0.58192965E-08 -0.57751808E-06  0.29447063E-06  0.10406512E-06
  0.31589060E-05  0.11484111E-05  0.87275292E-06 -0.32775938E-04  0.27451645E-04
  0.38810906E-04  0.42066268E-05 -0.87400228E-05 -0.12285446E-04 -0.58852232E-05
  0.18924551E-04 -0.18477083E-04 -0.66466049E-06  0.13011024E-06 -0.28625537E-06
 -0.84452042E-06 -0.92501673E-06  0.18492500E-05  0.87066719E-06  0.46115590E-06
 -0.34544078E-06  0.15756203E-04  0.23989208E-05 -0.32075428E-04 -0.36284391E-04
  0.99454318E-05  0.40872729E-04 -0.43168176E-05  0.14779794E-04 -0.30721772E-04

  0.20246841E-05 -0.16718397E-05  0.14980501E-05 -0.31044102E-06 -0.13151059E-05
  0.26340717E-05 -0.54184372E-06 -0.30533738E-05 -0.14648473E-05 -0.21136548E-05
  0.79983612E-05 -0.28772746E-05 -0.13583440E-05 -0.34314557E-05  0.67772592E-05
 -0.34701215E-05 -0.21980406E-05  0.23703086E-06  0.37241977E-04  0.11773152E-04
  0.52790672E-05  0.26639934E-04  0.34014045E-04 -0.84435990E-05  0.22120645E-04
  0.14729581E-04  0.31141843E-04  0.10182929E-05  0.85984623E-06  0.16076377E-05
 -0.59143425E-06  0.49656865E-05 -0.25521848E-05 -0.87930983E-06  0.19089348E-05
 -0.14860111E-05 -0.35441833E-04 -0.46060612E-04 -0.55850459E-04  0.10993568E-04
  0.35688441E-04 -0.48434773E-04 -0.22421648E-05 -0.19171539E-04 -0.16239368E-04
  0.33636346E-05 -0.87221549E-06 -0.29559976E-05 -0.10341601E-05  0.30155433E-05
 -0.35281838E-05  0.21619339E-05 -0.21993456E-05  0.95046742E-06 -0.15661755E-05
  0.31538316E-05 -0.31812620E-06  0.56842593E-06 -0.24382910E-05 -0.44454758E-06
 -0.18404129E-05 -0.26238182E-06 -0.32455952E-05 -0.24777636E-06 -0.27289472E-05
 -0.27496706E-06  0.27791118E-05 -0.82130524E-06  0.73344688E-06  0.66340722E-06
  0.35883944E-07  0.32748101E-06  0.55047286E-06 -0.19821644E-05 -0.34464878E-05
  0.97413622E-06 -0.32693590E-05  0.33198575E-05 -0.81246121E-07  0.92640820E-06
  0.10243877E-06  0.97416245E-07 -0.15217600E-05 -0.33673838E-05 -0.17062516E-05
 -0.90942651E-06  0.97529836E-06  0.22131684E-05 -0.66914921E-07  0.18925059E-05
 -0.57948451E-05  0.24501914E-06 -0.22679388E-05 -0.11238056E-04  0.19262248E-04
 -0.32842446E-04 -0.18904530E-04 -0.40621899E-05  0.10554286E-04  0.13351212E-06
 -0.11407606E-05 -0.41874958E-06 -0.98310846E-06 -0.50732097E-06 -0.26022708E-05
  0.67472467E-06 -0.87969611E-06  0.22159632E-05  0.11102168E-04 -0.25565988E-04
  0.39261806E-05  0.32656178E-04 -0.20332509E-04 -0.19963517E-05 -0.43421759E-05
  0.87530277E-05 -0.21701396E-04 -0.12038438E-05 -0.23901103E-05  0.74456813E-09
  0.10485435E-05 -0.17485184E-05  0.73193036E-06  0.40253094E-06  0.35083390E-06
  0.42073244E-06 -0.13538177E-04 -0.23671309E-04  0.26043370E-04  0.56741841E-04
 -0.38158304E-04 -0.48747654E-06 -0.16855159E-04 -0.19027232E-04  0.81414248E-07
 -0.18217695E-05  0.85814746E-06  0.28114717E-05  0.53896676E-06 -0.10733514E-05
  0.15117843E-05  0.12120733E-05 -0.62827922E-06  0.32475449E-05  0.17593475E-04
 -0.23349417E-04  0.25440958E-04 -0.94989761E-05  0.25593460E-04 -0.29736659E-06
 -0.26676939E-04  0.66087478E-05  0.13696187E-04  0.12875358E-05 -0.12695001E-05
  0.99119785E-06 -0.11611000E-05  0.29742296E-05 -0.13380412E-06  0.94950249E-06
  0.15520090E-05 -0.99720775E-06 -0.10359602E-05 -0.21044892E-06 -0.17390057E-05
 -0.15630978E-05  0.41096367E-05 -0.75299993E-06 -0.47085520E-06  0.11156350E-05
 -0.76444602E-06 -0.12015437E-05 -0.94207093E-06 -0.37525058E-06  0.80127350E-06
  0.32620272E-05 -0.10751031E-06 -0.13160268E-05  0.94340765E-07 -0.83897446E-06
  0.39232403E-06 -0.10111506E-06  0.82454821E-06  0.24667370E-05 -0.14541448E-05
 -0.16402097E-06 -0.16642087E-05  0.39407042E-06  0.25246223E-05  0.56414903E-04
  0.84245558E-05  0.99669079E-05  0.50062168E-05 -0.12498488E-04 -0.63975995E-06
  0.15324495E-04  0.74514127E-05  0.10197781E-04 -0.20181065E-03  0.25731970E-03
  0.10961890E-03  0.78667312E-04 -0.23635543E-03  0.24250042E-03  0.29081945E-03
  0.16358735E-03 -0.13004608E-03  0.14382604E-05  0.31450678E-05 -0.17110065E-05
 -0.29613679E-05  0.32647127E-05  0.36468347E-06  0.84427276E-06 -0.99087043E-07
 -0.46875265E-05  0.81919087E-06 -0.99669305E-05 -0.18599348E-04 -0.17169590E-06
 -0.14033049E-04 -0.50177908E-05  0.17018586E-04  0.41429797E-05  0.14363297E-04

 -0.22131132E-05  0.17163449E-05  0.20764979E-05 -0.22775542E-05  0.15298929E-05
  0.69839760E-05 -0.19763956E-05 -0.18776068E-05 -0.11956606E-05 -0.73450445E-06
  0.99951533E-06 -0.29545014E-05  0.12801934E-05  0.31108529E-06  0.32431203E-05
 -0.79946984E-06 -0.33278121E-06  0.21408873E-05 -0.65632328E-05 -0.86272139E-06
 -0.14799460E-04  0.33690992E-04  0.10392950E-03 -0.31482017E-04  0.48637532E-04
  0.16596489E-04 -0.13417285E-04  0.16693637E-05  0.23328038E-05 -0.52110820E-06
 -0.27675868E-05 -0.57598839E-06  0.67480052E-05 -0.18302354E-05 -0.16453610E-06
 -0.11138529E-05 -0.27589653E-05 -0.38186749E-04 -0.26969583E-04  0.10451621E-05
 -0.81211041E-04  0.26745650E-04 -0.28791864E-04  0.20183016E-05 -0.55545600E-05
  0.26192676E-05  0.22816018E-05 -0.12786538E-05  0.19106723E-05  0.31570828E-05
 -0.19853869E-05  0.80143415E-06  0.23103775E-05  0.12100243E-05  0.45337529E-06
 -0.24851584E-05  0.22917549E-05  0.19747781E-05 -0.33309557E-05  0.60244973E-06
 -0.12481078E-05  0.14260495E-05  0.88321174E-06  0.40536104E-06  0.33657046E-06
  0.41298365E-07  0.30352135E-05 -0.17106795E-05  0.19407794E-05 -0.67010740E-07
  0.17180937E-05  0.13765297E-05 -0.82809843E-06  0.79982717E-06  0.66377089E-06
  0.28180194E-06  0.10606919E-06 -0.14218602E-05  0.21681668E-05 -0.10531286E-05
  0.38521637E-07 -0.42305804E-05 -0.49813188E-05  0.76552372E-06 -0.34246405E-05
  0.67523992E-05  0.12689401E-05  0.16470842E-05  0.33830499E-06 -0.49832751E-06
 -0.64737836E-05  0.47757500E-05  0.36096026E-05 -0.23540680E-04 -0.32453781E-05
 -0.41545087E-04  0.29561319E-05  0.71103363E-05 -0.12604357E-04 -0.14215196E-05
 -0.41799315E-05 -0.11288404E-05  0.21591841E-05 -0.10862417E-05 -0.13877740E-05
 -0.19815024E-05 -0.23702257E-06  0.10410384E-05  0.10515550E-04  0.15219357E-04
  0.10649785E-04  0.79684183E-04 -0.27530259E-04 -0.91650308E-05  0.25023882E-04
 -0.10624049E-04  0.24210150E-05  0.14497317E-05 -0.24944773E-06 -0.88876021E-06
  0.34799227E-06 -0.43916334E-05  0.25305121E-05 -0.29610206E-06 -0.92586141E-06
 -0.36197231E-06  0.20624899E-04  0.55358583E-05  0.37239371E-04  0.14542365E-04
  0.10800558E-04  0.14484093E-04 -0.34526416E-04 -0.36287394E-05 -0.17879473E-04
  0.33564510E-06 -0.49680218E-05  0.33078815E-06  0.21012964E-05 -0.60937329E-05
  0.19243440E-05  0.12482559E-05 -0.19034326E-05 -0.21277451E-05  0.10236608E-04
 -0.20257170E-05  0.42742427E-04 -0.49125091E-05  0.27903839E-04  0.12994114E-04
  0.97470002E-05 -0.64564735E-05  0.18388302E-04 -0.72159211E-06 -0.35186354E-07
 -0.92433086E-06  0.12663157E-05 -0.11691393E-05 -0.63750495E-06  0.10660531E-05
  0.83412092E-06 -0.36861896E-05 -0.49289327E-06  0.11938069E-05 -0.27308647E-05
 -0.35711350E-06 -0.11687767E-05 -0.68445382E-06 -0.17791482E-05  0.31624440E-06
 -0.52711268E-07 -0.32957662E-07  0.37432608E-05  0.48011694E-06 -0.67167331E-06
  0.28793920E-05 -0.60090807E-06 -0.19535120E-05 -0.68203701E-06  0.79388861E-06
  0.61698348E-06 -0.17068029E-05 -0.93330905E-06  0.68103495E-06  0.27959665E-05
 -0.37963927E-06  0.17086386E-06  0.15459116E-06  0.70070761E-06  0.84245558E-05
  0.79010682E-04 -0.22668850E-05 -0.14923822E-04  0.14849700E-04 -0.10703658E-04
 -0.33410717E-05 -0.12635144E-05  0.88917049E-05 -0.10654672E-05  0.27212415E-03
  0.37498116E-03  0.26244007E-03  0.11011887E-03  0.13581771E-03 -0.54676882E-04
 -0.17530599E-03 -0.17256939E-03  0.48777093E-05  0.38396911E-05 -0.25333839E-05
 -0.13603848E-05  0.40801226E-05 -0.79500976E-06  0.76938224E-05 -0.54056626E-05
 -0.51006174E-05  0.16884179E-04  0.12294229E-04  0.80765821E-05 -0.63268072E-05
  0.48855750E-04 -0.38709542E-04  0.17767528E-04  0.14720927E-04  0.94312936E-05

 -0.12207443E-05 -0.39015543E-05  0.36914170E-05  0.13126973E-05 -0.50377511E-05
 -0.47399679E-05 -0.69473152E-06 -0.14844408E-05 -0.28120443E-05 -0.17449482E-05
  0.10735672E-05 -0.66399675E-06 -0.33191978E-06 -0.52606613E-05  0.62197233E-06
 -0.72085718E-06  0.23140676E-05  0.23865393E-06 -0.51019762E-04 -0.33676433E-04
  0.11383076E-04  0.17746577E-04  0.13038178E-04 -0.50620033E-04  0.51282016E-04
  0.26057505E-04  0.18235382E-04  0.25297065E-05  0.14996251E-05  0.20140009E-05
 -0.16600897E-05  0.27908322E-05  0.35510441E-06 -0.30528470E-05 -0.12837237E-05
 -0.22012049E-05 -0.40702535E-04 -0.31569046E-04 -0.35697293E-04 -0.15598067E-04
 -0.24388007E-04  0.28375867E-04 -0.50703596E-05 -0.21548978E-04  0.36543138E-05
 -0.11801298E-05 -0.31396879E-05  0.26960441E-05 -0.27600143E-05 -0.24322177E-06
  0.90133045E-06  0.14703059E-05 -0.38031456E-05  0.37381123E-05 -0.76803180E-06
 -0.12628399E-05 -0.54025104E-06 -0.10437585E-05  0.41221932E-06 -0.51414011E-06
 -0.19923928E-05  0.46831859E-06 -0.28605154E-05  0.15736015E-06 -0.24938899E-05
  0.11441809E-05 -0.82006946E-06 -0.15332484E-05  0.73249183E-07  0.66528524E-06
  0.12761868E-05 -0.34852662E-06 -0.29589367E-05  0.12853271E-05 -0.19520534E-05
 -0.88151898E-07  0.18703666E-05  0.20779532E-05 -0.31407210E-06  0.11134348E-05
  0.88829589E-06 -0.15525379E-05  0.54738904E-05 -0.73453663E-06  0.10964784E-05
  0.80156932E-06 -0.63993410E-06  0.27959889E-05  0.51711775E-06  0.23786041E-05
 -0.40583778E-05 -0.37924824E-04  0.55891865E-05  0.58198550E-05 -0.29546776E-04
 -0.66442829E-05  0.13307365E-04 -0.32187317E-04 -0.33106090E-04  0.12646661E-05
 -0.94439596E-06  0.37368103E-05  0.30131794E-06  0.10450316E-05 -0.55687418E-05
  0.12209709E-05 -0.21124438E-05 -0.47764428E-06  0.14521444E-04  0.61631745E-05
 -0.23623830E-04 -0.21079686E-04  0.25046892E-04 -0.55550938E-05 -0.23098771E-04
  0.19249084E-05  0.27994062E-04  0.10137586E-05  0.19748705E-05 -0.20507244E-06
  0.19208947E-05 -0.19491956E-05 -0.17646035E-05  0.10945052E-05  0.20392481E-05
  0.25985031E-05  0.17909348E-04  0.19056948E-04 -0.22062998E-04 -0.98463703E-05
  0.13855695E-04 -0.45054847E-05  0.22854227E-05  0.38401698E-05 -0.54659019E-05
  0.16223434E-05  0.13525316E-05  0.20816173E-05 -0.14432177E-05  0.30505221E-05
  0.73629187E-06  0.23849823E-05  0.48661631E-06  0.40573045E-06  0.26063519E-06
  0.64476287E-05  0.20367663E-04 -0.63844554E-06  0.38432709E-05  0.29108387E-05
 -0.11678071E-04  0.54274811E-05 -0.45870743E-04  0.17801051E-05 -0.58934708E-06
  0.11797159E-06 -0.54057411E-06  0.57617965E-06  0.82516494E-06 -0.91948924E-06
 -0.15731338E-06 -0.20885991E-05 -0.29557167E-06  0.43054261E-06 -0.80499640E-06
  0.53176931E-06  0.66847307E-08 -0.19206056E-05  0.61042886E-06 -0.16765476E-05
 -0.61626804E-06 -0.95432487E-06 -0.58787834E-06 -0.26538323E-05 -0.10083676E-05
 -0.86084873E-06  0.10978997E-05  0.22156708E-06 -0.60437051E-06 -0.63306144E-06
  0.13295676E-05 -0.92032329E-06 -0.74342295E-06  0.49026982E-06 -0.21826803E-05
  0.14838529E-06 -0.32682086E-07  0.12394128E-05  0.58192965E-08  0.99669079E-05
 -0.22668850E-05  0.60191811E-04 -0.94524520E-06 -0.13443927E-04  0.55865786E-05
  0.53402586E-05  0.35779608E-05  0.13949133E-04 -0.31353550E-04  0.20500751E-03
 -0.99261857E-04  0.11719855E-04 -0.23018656E-03  0.65377544E-03  0.46186519E-04
  0.13899741E-04  0.20791476E-03 -0.79765296E-06 -0.17337131E-05 -0.59285396E-06
  0.10192126E-05 -0.10193942E-05  0.56797623E-06 -0.12023354E-05 -0.25150586E-06
  0.33929586E-06 -0.85397272E-05  0.38255367E-05 -0.35487475E-05 -0.14205062E-04
 -0.18726013E-05 -0.68402126E-05  0.94655362E-05  0.22479292E-05  0.74002340E-05

  0.33496570E-05  0.12729305E-05  0.19750339E-05 -0.76951921E-05  0.28250560E-06
  0.46222190E-05  0.26392931E-06 -0.39907021E-05 -0.11806238E-05  0.12735193E-05
  0.26996247E-05 -0.13284398E-06 -0.62650989E-05  0.60007171E-05 -0.11799521E-05
  0.10365338E-05 -0.10450231E-05  0.32646098E-05  0.26353884E-04  0.11960625E-04
  0.26683275E-05 -0.34390161E-04  0.43464256E-04  0.91175157E-05  0.46661430E-05
 -0.23158277E-04 -0.17119251E-04  0.31737890E-06 -0.10355922E-05 -0.52621050E-06
 -0.37895343E-06 -0.36452404E-06  0.29407040E-05  0.25615230E-05  0.10288660E-05
 -0.75477000E-07  0.13981995E-04  0.89005884E-05  0.12486578E-04 -0.92885265E-05
 -0.15327101E-05 -0.12652140E-04 -0.15883901E-04 -0.22004810E-04 -0.58515196E-05
 -0.34596833E-06 -0.16548044E-05  0.12193475E-05  0.13789181E-06  0.37961267E-05
 -0.26375371E-05  0.19672233E-05 -0.15844589E-05  0.95721565E-06 -0.21584433E-05
  0.15538164E-05 -0.12302654E-05 -0.36826262E-05  0.36022836E-06  0.14068737E-05
 -0.11690497E-05  0.69088649E-06 -0.61182018E-06 -0.15138504E-05 -0.13057969E-05
  0.13328109E-06 -0.12961399E-05 -0.65569767E-07  0.25897613E-08  0.11490573E-05
  0.10032449E-05  0.60976209E-06 -0.10651738E-05 -0.13806891E-05 -0.34209127E-05
  0.28854548E-06  0.28225459E-06 -0.10328310E-06 -0.40843044E-06 -0.14116874E-06
 -0.15553911E-05  0.14377571E-05  0.74019298E-06  0.14466595E-05  0.34719914E-05
 -0.22616844E-05 -0.99491651E-07 -0.94188094E-06 -0.10651596E-05 -0.97430667E-06
 -0.16375583E-04  0.62486196E-06  0.11815724E-04  0.14407965E-04 -0.58704849E-05
 -0.17160488E-04  0.42139491E-05  0.50620295E-05  0.11377132E-04 -0.12593037E-05
 -0.10216550E-05 -0.97179919E-06 -0.27247950E-05 -0.67736747E-06  0.61425487E-06
  0.12588662E-05 -0.97861078E-06  0.31742283E-05  0.18335492E-04 -0.20400245E-04
 -0.10057080E-04  0.35072053E-04 -0.17174596E-04 -0.91314318E-05 -0.18148876E-04
  0.57512514E-05 -0.14327075E-04 -0.86558548E-06  0.27285991E-05 -0.19749201E-05
  0.57819215E-05 -0.15105052E-05  0.13098698E-05 -0.10274765E-05  0.26571588E-05
  0.12206753E-05  0.89050118E-05  0.24794870E-04 -0.23783800E-04 -0.34917968E-04
 -0.97830547E-05 -0.64966287E-05  0.30547570E-04 -0.17064975E-04  0.21328522E-04
 -0.10535679E-05  0.92699031E-06  0.98151043E-06  0.27845826E-07  0.14047117E-05
 -0.15806094E-05 -0.69257107E-06  0.32700325E-06  0.48605983E-06 -0.50260935E-05
 -0.14801867E-04  0.58335343E-06 -0.95083989E-05 -0.59669826E-05  0.21353798E-04
 -0.97418048E-05  0.19755496E-04 -0.11416170E-04  0.16531944E-05 -0.10532646E-05
  0.40543429E-06  0.32644653E-05 -0.19506709E-05 -0.16488289E-05  0.69671509E-06
 -0.47174839E-06  0.10458594E-05  0.58025362E-06  0.15067786E-05 -0.32969834E-06
 -0.36338878E-05  0.18347713E-05  0.22358341E-05  0.48343550E-06  0.51510227E-06
  0.16486606E-05 -0.81462928E-06 -0.14945090E-05 -0.58804488E-07 -0.34957405E-05
  0.24602166E-05  0.12327943E-05  0.67828666E-06  0.10024651E-05  0.71140933E-06
 -0.20394558E-05 -0.10715041E-05 -0.22518334E-05  0.75701300E-06 -0.23141449E-05
  0.16495654E-05 -0.11517245E-05 -0.16742121E-06 -0.57751808E-06  0.50062168E-05
 -0.14923822E-04 -0.94524520E-06  0.69064631E-04 -0.30872194E-04 -0.12710743E-04
  0.51624791E-05  0.95659833E-05 -0.16312272E-05 -0.51009764E-04 -0.17151089E-03
 -0.20818894E-03 -0.23927454E-03 -0.13241528E-04  0.21109785E-04  0.17054749E-03
  0.16668253E-03  0.81539879E-04  0.37774100E-05 -0.13673133E-05 -0.67295699E-06
  0.10483910E-06 -0.78082041E-06 -0.83464603E-06  0.16314741E-05 -0.12795833E-05
  0.19201473E-05  0.89889106E-05 -0.31789780E-05  0.78341122E-05  0.46585660E-04
 -0.11181869E-04  0.59241872E-05  0.67456920E-05 -0.44176079E-05 -0.14550391E-04

 -0.11820692E-05  0.51085849E-05 -0.10502741E-05 -0.18649689E-06  0.83507475E-05
  0.46648421E-05  0.12447147E-05  0.27042582E-06  0.39890001E-05  0.35862248E-05
  0.99727751E-06  0.48110876E-05  0.47249301E-05 -0.45579601E-05 -0.31426352E-06
  0.47868790E-05  0.30956637E-05 -0.26265216E-05 -0.55145599E-04  0.63811668E-04
  0.90248497E-05  0.15440057E-03 -0.17665901E-03  0.36272630E-04  0.17324036E-04
  0.14119684E-04 -0.96124379E-05  0.40746786E-06  0.23062154E-05 -0.17554023E-05
  0.53032532E-06 -0.35505093E-05 -0.17070951E-05  0.16871551E-05 -0.20592289E-05
 -0.19738792E-05 -0.31151832E-05  0.42246192E-04  0.13447109E-04  0.11310420E-05
  0.48628443E-04 -0.11915837E-04 -0.18216288E-04  0.24124480E-04  0.30494992E-04
  0.23109641E-06 -0.33632807E-05 -0.17921507E-05  0.29452927E-05 -0.68491689E-05
  0.45914491E-05  0.20177662E-05  0.17082056E-05 -0.25436265E-05  0.34303249E-05
 -0.86783665E-06  0.10649303E-05  0.27010383E-05 -0.29645470E-05 -0.45722861E-06
 -0.64640138E-06 -0.75913676E-08  0.14702075E-05  0.14985904E-05  0.50755022E-05
 -0.40004369E-06  0.64512866E-06  0.62888013E-06  0.15436470E-05 -0.24861410E-05
 -0.13084177E-07 -0.39172591E-06 -0.31451739E-06  0.16521127E-05 -0.27933358E-06
  0.12838821E-05 -0.46634535E-05  0.25641549E-05 -0.14768062E-05  0.39467686E-06
  0.12648071E-05 -0.22242340E-05 -0.72205154E-05 -0.62378120E-06 -0.19977229E-05
  0.23843306E-05  0.26577448E-05 -0.87675759E-06 -0.11385349E-05  0.23056085E-06
  0.88781834E-05 -0.36152524E-04 -0.42677055E-05 -0.27037306E-04  0.54353412E-04
  0.20405087E-04  0.22821397E-04 -0.42818408E-05  0.21899391E-04 -0.28980613E-05
 -0.29665019E-05 -0.13077392E-06  0.25442493E-06  0.36581962E-05  0.22999569E-06
 -0.31567020E-05  0.27010698E-05 -0.28186633E-05  0.98469505E-05  0.10099135E-05
 -0.31578233E-04 -0.72718912E-05  0.79047757E-04 -0.59202088E-04  0.60640041E-04
 -0.37429301E-05  0.21794737E-05  0.36407809E-05  0.39522826E-05 -0.78270723E-06
  0.56412260E-06 -0.48634970E-05  0.26713238E-05 -0.95757885E-06 -0.33172796E-05
 -0.61501696E-05 -0.16368588E-05  0.35388708E-04 -0.33211083E-04  0.39037991E-04
 -0.83382809E-04 -0.11846396E-04 -0.16196468E-04  0.18876293E-04 -0.60769129E-04
  0.15332070E-05 -0.22668359E-05 -0.55786874E-06  0.19656457E-05 -0.64372652E-05
  0.61159092E-05  0.10216061E-05 -0.19483534E-06 -0.24525145E-05 -0.55880465E-05
  0.19933912E-04  0.12105010E-04 -0.67248525E-05  0.37436628E-04  0.86122215E-05
  0.24956753E-04 -0.31492558E-05  0.20350817E-04 -0.15307432E-05 -0.21903800E-05
 -0.20580453E-06  0.16612742E-05  0.13472227E-05 -0.57609273E-06 -0.11497103E-05
 -0.16027312E-06 -0.18158973E-05  0.85979541E-06 -0.14322254E-06  0.18154667E-05
  0.24664083E-05 -0.54615148E-05  0.18427116E-05 -0.18585078E-05 -0.66243484E-06
  0.16056998E-05 -0.11487567E-05  0.61761856E-05 -0.15225491E-05  0.51359404E-06
  0.24584132E-05  0.23493027E-05 -0.74978627E-07 -0.55027828E-06  0.25108489E-05
  0.85148910E-06  0.31780488E-05  0.98069577E-06 -0.11915181E-05  0.79365153E-05
 -0.12839609E-05  0.42115348E-05 -0.11659096E-05  0.29447063E-06 -0.12498488E-04
  0.14849700E-04 -0.13443927E-04 -0.30872194E-04  0.12071835E-03 -0.27451299E-04
  0.27483179E-05 -0.74261767E-05 -0.93911803E-05  0.54061371E-04 -0.12078722E-03
  0.37443940E-03  0.78081177E-04  0.69821487E-03 -0.51676844E-03 -0.12715912E-03
 -0.80498865E-04  0.31219794E-05 -0.46776999E-05 -0.16396338E-05  0.30124950E-05
  0.20446288E-05  0.33105306E-05 -0.17862630E-05 -0.11505837E-05  0.68967691E-05
  0.26309047E-05 -0.59075482E-05  0.35942669E-04  0.38642981E-04  0.99570918E-04
  0.46660180E-05 -0.52293907E-04 -0.48010539E-04  0.14092418E-04 -0.34814307E-04

  0.20127572E-05 -0.23550081E-06 -0.17329803E-05  0.63198767E-05  0.17911140E-06
 -0.18699743E-04 -0.34375682E-06  0.52290772E-05 -0.18124639E-05 -0.85826670E-06
  0.11474652E-06 -0.39965860E-06  0.77749282E-06  0.12936925E-05 -0.10973315E-05
 -0.17461797E-06  0.37762495E-06  0.11623191E-05  0.28128841E-04  0.49804919E-05
  0.19603817E-04  0.54896086E-04  0.18028784E-04 -0.65696939E-04 -0.17119516E-04
 -0.11480228E-04  0.22089925E-04 -0.96391657E-06 -0.13176721E-05  0.11670268E-05
  0.22526156E-05  0.18361434E-05 -0.56881832E-05 -0.12657440E-05  0.39971359E-06
  0.25613257E-05  0.27183367E-04  0.11878280E-05  0.47771737E-04  0.21678583E-04
 -0.25169201E-04  0.12723225E-04  0.19417794E-04 -0.54517454E-06 -0.64154842E-05
  0.18622250E-05  0.29772327E-05  0.24848518E-05 -0.15659250E-05  0.26583787E-05
 -0.21199574E-05 -0.11544007E-05 -0.73848701E-06  0.53029321E-06 -0.18012420E-05
  0.19850764E-05 -0.47865286E-06  0.78324917E-06  0.95695561E-06  0.11037001E-05
  0.35493062E-06 -0.17379063E-06  0.11268391E-05 -0.14030213E-06 -0.21435638E-05
  0.40120468E-06  0.51200132E-06 -0.39634890E-06  0.50743883E-06  0.43238604E-07
 -0.22709692E-05  0.46510847E-07 -0.16256101E-05 -0.33115351E-06  0.21478691E-07
  0.29150136E-06  0.39103574E-05 -0.54342540E-06  0.40282944E-07 -0.99649410E-06
 -0.11850124E-06  0.35812305E-05  0.11703766E-05 -0.15362306E-05  0.10485912E-05
 -0.74379173E-06 -0.75229524E-05 -0.55620633E-07  0.40076684E-06 -0.76149640E-06
 -0.44637212E-05  0.14236153E-04 -0.23999586E-04  0.24754815E-04 -0.68448008E-06
 -0.48134778E-04 -0.14956763E-04  0.10914414E-04  0.88670590E-05  0.42956353E-06
 -0.19989690E-05  0.76117876E-06  0.88423350E-06 -0.76397810E-06 -0.24689419E-05
  0.17216570E-05 -0.32258486E-05 -0.45374244E-06  0.76314014E-05  0.58676743E-05
  0.16872526E-04  0.43295946E-04 -0.86649239E-05 -0.53635822E-04 -0.14096928E-04
 -0.29473909E-04 -0.17972857E-04 -0.47596284E-06 -0.18407146E-05  0.26960726E-05
  0.54616578E-06  0.28590511E-05 -0.61287647E-05  0.18597000E-06 -0.11714651E-05
  0.56355810E-06 -0.13965842E-04 -0.34558876E-04  0.21301545E-04  0.65692818E-05
  0.27668442E-04  0.92122900E-05 -0.16588100E-04  0.30980511E-05 -0.64027154E-05
 -0.85115027E-06 -0.18919624E-06  0.60991153E-06 -0.14898664E-05  0.28413272E-05
  0.73605552E-06  0.10623561E-06 -0.78570588E-06  0.12352056E-05  0.10951129E-05
 -0.22414918E-04 -0.66300353E-05  0.17429389E-04 -0.74911564E-05 -0.59636272E-04
 -0.85984662E-05  0.10257969E-04  0.27457775E-04 -0.14523148E-06  0.15144436E-05
 -0.11687766E-05 -0.10707663E-05 -0.15428455E-05  0.41865486E-06  0.60853503E-06
 -0.41171436E-06  0.29052581E-05 -0.14609390E-05  0.13729443E-05  0.37661714E-06
  0.12669035E-05 -0.71838234E-06  0.17183535E-05  0.80521092E-06  0.73800575E-06
 -0.41994515E-05 -0.29702408E-06 -0.43384013E-06  0.27023569E-05  0.11084133E-05
  0.12700988E-05 -0.44882892E-05 -0.92938932E-07  0.10866112E-05 -0.52238174E-06
 -0.34682120E-06  0.19704267E-06  0.42861205E-06 -0.28771939E-06 -0.13009519E-05
  0.61838382E-06 -0.58896019E-07  0.24658399E-05  0.10406512E-06 -0.63975995E-06
 -0.10703658E-04  0.55865786E-05 -0.12710743E-04 -0.27451299E-04  0.69229931E-04
 -0.31944523E-05  0.69509726E-05  0.43540430E-05 -0.58474337E-05 -0.71138582E-05
 -0.19831473E-03  0.66872520E-05 -0.13558493E-03  0.12767685E-03 -0.28308811E-04
 -0.29912522E-04  0.20946402E-03 -0.46225358E-06 -0.17267256E-05 -0.19455092E-06
 -0.21217230E-05 -0.21954061E-06  0.38395615E-05 -0.29656133E-05 -0.25512207E-05
 -0.92420346E-06 -0.28485204E-04 -0.70708546E-05 -0.31335036E-04 -0.15721244E-04
 -0.18799378E-04  0.20448989E-04  0.42953809E-07 -0.24562681E-04 -0.25388429E-04

  0.17896949E-05  0.19554429E-05  0.17799164E-05 -0.17618202E-05 -0.31931965E-06
  0.40990679E-05  0.46305427E-06  0.57471850E-06 -0.10736408E-06  0.22400038E-06
  0.42660741E-05  0.21930632E-05 -0.25954896E-05  0.23931922E-05  0.16667237E-05
 -0.19685411E-05 -0.51487058E-07  0.37116573E-06  0.40249090E-05  0.27653692E-04
  0.20346286E-04 -0.19107597E-05 -0.36390877E-05  0.23152585E-04  0.10154791E-05
 -0.14331110E-04 -0.33218384E-05  0.25542804E-05 -0.17679293E-05  0.19646556E-05
  0.42519179E-06 -0.19469375E-06 -0.27973685E-05 -0.10387954E-05 -0.13095977E-05
 -0.19714202E-05 -0.17346815E-04  0.12541352E-04 -0.91307216E-05  0.23978227E-05
  0.66086934E-04 -0.19736856E-04  0.11090519E-04  0.22105950E-05  0.20120822E-04
 -0.28818406E-05 -0.23361362E-05 -0.18861822E-05  0.54233392E-06  0.13106268E-05
 -0.11176407E-05  0.10639589E-06 -0.15239380E-05 -0.16115379E-05 -0.11863827E-05
  0.15656854E-05 -0.10268208E-05  0.16560132E-05 -0.30748265E-05 -0.67836903E-07
 -0.10200766E-05 -0.60284150E-06 -0.22440309E-05 -0.58661164E-06 -0.21481819E-05
 -0.16520259E-05  0.86302673E-06 -0.19096252E-06  0.16220780E-06 -0.45905016E-06
  0.11798750E-06  0.22395078E-06 -0.27009290E-06  0.34680216E-06 -0.45475718E-06
  0.92255557E-06 -0.42675666E-05  0.31264483E-05  0.14605935E-06  0.26739261E-06
 -0.13070705E-06  0.69060967E-06  0.24610169E-05 -0.27786060E-05 -0.24451056E-05
 -0.31960803E-05  0.23013296E-05 -0.29217567E-06 -0.12794092E-06  0.20498961E-05
  0.10793843E-05 -0.15327894E-04 -0.17795258E-05  0.24056586E-04  0.17271945E-04
 -0.17271778E-04 -0.60655075E-05 -0.16876702E-05  0.74860625E-05 -0.18982019E-06
  0.88545348E-06 -0.21189675E-06 -0.57948237E-06  0.31475540E-05 -0.30572363E-05
  0.18739961E-05  0.16402547E-05  0.12373819E-05  0.28546608E-04 -0.12039309E-04
  0.14194727E-04  0.47731997E-04 -0.18432425E-04 -0.17563045E-04 -0.15253070E-06
 -0.25133511E-05 -0.84457274E-06  0.17433178E-05  0.27079079E-05  0.59315097E-06
  0.27273683E-05 -0.53180501E-05  0.17441634E-05  0.19615225E-06  0.44590227E-06
 -0.17316987E-05  0.26237424E-04  0.89405152E-05  0.16132659E-05 -0.14864104E-04
 -0.18800628E-04 -0.25700734E-04  0.12462781E-04  0.23619551E-05 -0.64694576E-05
  0.40256160E-06  0.24947380E-05  0.80894640E-06 -0.23086539E-05 -0.20353875E-05
  0.31070231E-05  0.72500256E-07 -0.11689915E-05  0.69292415E-06 -0.45519247E-06
 -0.21178607E-04  0.21454786E-04  0.64665385E-05  0.23746627E-04 -0.10978557E-04
 -0.25992782E-04  0.12878024E-05 -0.64429189E-05 -0.10999171E-05 -0.16400843E-05
 -0.12417001E-05 -0.11873897E-05  0.13204089E-05  0.10350607E-05  0.29247021E-06
  0.20986115E-06 -0.34509644E-06  0.64568163E-07 -0.38706258E-06  0.36896130E-06
  0.72706049E-06  0.25158128E-05  0.56667244E-06  0.19030743E-05  0.14783876E-05
  0.10472957E-05  0.27785255E-06 -0.65245859E-08  0.10090613E-06  0.88790083E-06
  0.15724618E-05 -0.25668241E-06  0.23313398E-05 -0.36946964E-06  0.18865848E-05
  0.18421739E-06  0.13217509E-05  0.26366102E-05  0.19886794E-05  0.18959677E-05
 -0.20192329E-05 -0.69455782E-06  0.18633378E-06  0.31589060E-05  0.15324495E-04
 -0.33410717E-05  0.53402586E-05  0.51624791E-05  0.27483179E-05 -0.31944523E-05
  0.49514395E-04  0.22117580E-05  0.44274996E-05 -0.22559711E-03  0.11131221E-03
  0.14765644E-03  0.59285134E-05 -0.12762297E-04 -0.31786969E-04  0.19111584E-03
  0.27893224E-03 -0.70624189E-04 -0.12099756E-05 -0.53435100E-05  0.50966006E-05
  0.47350353E-05 -0.12850650E-05 -0.34573245E-05 -0.12276240E-07  0.25576068E-05
  0.77454105E-05  0.12664991E-04 -0.85180988E-05 -0.12632254E-04  0.48402938E-04
 -0.90273532E-05 -0.31149677E-05  0.71389588E-05  0.88359042E-05 -0.48981832E-04

  0.34962635E-05 -0.10101763E-05  0.33999768E-05 -0.27516313E-05 -0.20968283E-05
  0.43263959E-05 -0.69514291E-06 -0.36281658E-05 -0.96983416E-06  0.22572171E-06
 -0.46489689E-06 -0.31824893E-05 -0.13415471E-06 -0.16294428E-05  0.17246962E-05
 -0.59427125E-06 -0.19509299E-05  0.22350740E-05  0.11335118E-04 -0.10571003E-04
 -0.67807205E-05 -0.91371970E-05  0.25756390E-04 -0.19967426E-04  0.21180290E-04
 -0.12750666E-04  0.65686495E-05  0.73975480E-06  0.18270708E-05 -0.24795292E-05
  0.38180714E-06  0.42045912E-05 -0.51983360E-06  0.69830100E-06  0.28228702E-08
  0.26101290E-07  0.18459221E-04  0.16784368E-07  0.18133851E-04  0.38587606E-05
  0.93860367E-05 -0.99654806E-05  0.23367944E-05  0.14626730E-04  0.83079815E-05
  0.19158213E-06 -0.10670318E-05  0.30462810E-05 -0.19097592E-06  0.13239265E-05
 -0.77035528E-06 -0.46588804E-07 -0.15417454E-05  0.20038017E-05 -0.87619831E-06
 -0.32211305E-07 -0.30000450E-05  0.93918023E-07 -0.21282908E-06  0.17951888E-06
  0.21303010E-06  0.72666396E-07 -0.12241693E-05 -0.31761011E-06 -0.98098705E-06
 -0.29301722E-06  0.14090507E-05 -0.24078534E-06 -0.23077153E-05  0.38355690E-06
 -0.63296407E-06  0.40108254E-06 -0.92120887E-06 -0.11382810E-05 -0.37934421E-05
  0.30151105E-06 -0.21676939E-06 -0.33534284E-07 -0.85672108E-06 -0.89993561E-07
 -0.12353598E-05  0.75318037E-06 -0.18290005E-06  0.18294475E-05 -0.13149922E-05
 -0.26470652E-06  0.17879641E-05 -0.64559032E-06 -0.45864710E-06 -0.22896449E-05
 -0.27359484E-05  0.45747053E-05 -0.36105476E-05  0.21826114E-04 -0.12512488E-04
 -0.18707076E-04 -0.13664208E-05  0.56115523E-05  0.11115261E-05 -0.69500443E-07
 -0.17455825E-05 -0.12395069E-05 -0.49186623E-06 -0.12467395E-05 -0.40824978E-05
  0.13398013E-06 -0.24518907E-05  0.33272045E-05  0.13380139E-04 -0.15215639E-04
  0.93284084E-05  0.49519028E-04 -0.40962979E-05 -0.61696913E-04 -0.14248736E-04
 -0.11265894E-04 -0.20387509E-04 -0.58756209E-06 -0.29778697E-06  0.14476190E-05
  0.19695668E-05 -0.15913506E-05 -0.93628159E-06 -0.69185974E-06 -0.12985881E-07
  0.82672794E-07  0.50398168E-05 -0.53100922E-05 -0.50965514E-05 -0.37222671E-05
  0.26725592E-05 -0.18793771E-05 -0.20655166E-05 -0.65528242E-05 -0.17308366E-05
 -0.10103794E-05 -0.48026542E-06  0.75612119E-06 -0.47516068E-07  0.60896066E-07
  0.36040197E-06 -0.56625239E-06 -0.96979834E-06  0.18380001E-06  0.10552389E-06
 -0.95913128E-05  0.11246173E-04  0.11127154E-04 -0.69476054E-05  0.88381250E-06
  0.99795917E-06  0.26804112E-05  0.40732150E-05 -0.54684027E-06 -0.86467027E-06
  0.20688495E-06  0.60443543E-06  0.84901041E-07 -0.13963652E-05  0.22156316E-05
 -0.61766308E-06  0.79561766E-06 -0.11184496E-05  0.66753964E-06 -0.19776219E-05
  0.99038401E-06  0.55708274E-06  0.73387541E-06  0.45034734E-06  0.13961245E-05
  0.98171656E-06  0.76876267E-06 -0.34690477E-06 -0.89955502E-06 -0.23962041E-06
  0.80574384E-06  0.78236627E-06 -0.23655067E-06 -0.14420434E-05 -0.10932502E-05
 -0.21421251E-05 -0.44465778E-06 -0.66452671E-06  0.22870323E-06 -0.63494846E-06
  0.28238272E-05 -0.33817483E-06  0.46143512E-06  0.11484111E-05  0.74514127E-05
 -0.12635144E-05  0.35779608E-05  0.95659833E-05 -0.74261767E-05  0.69509726E-05
  0.22117580E-05  0.31328863E-04  0.48111403E-05 -0.48666522E-04  0.20446319E-04
 -0.10015236E-03 -0.57912142E-05 -0.76945571E-04  0.20898358E-03  0.94665449E-04
 -0.28601710E-04  0.59311526E-04  0.12305934E-05  0.36764266E-05 -0.47641944E-07
 -0.30187510E-05  0.50217909E-05 -0.16831757E-05  0.38337095E-06 -0.15797384E-05
 -0.28635719E-05 -0.43996406E-05  0.33790449E-05 -0.31177781E-04 -0.43247685E-05
  0.89272112E-05 -0.16277321E-04 -0.18469494E-06 -0.13808615E-04 -0.97448691E-06

 -0.29322180E-06 -0.32035973E-05 -0.56019593E-06  0.29465965E-05 -0.37022529E-05
 -0.39713045E-06  0.24372608E-06  0.42936988E-06 -0.41303536E-05 -0.67612588E-06
  0.11571519E-05 -0.23029082E-05 -0.42582568E-06 -0.22507695E-05  0.16245246E-05
 -0.18901425E-05 -0.73927668E-06 -0.54118512E-06  0.22159178E-04 -0.51310821E-05
 -0.12268717E-04  0.55815547E-04 -0.84322564E-04 -0.46558400E-05 -0.22562564E-04
  0.11939096E-04  0.34121398E-04  0.20815986E-05  0.46928268E-07  0.18627878E-05
 -0.30303745E-05  0.19253152E-05  0.26869654E-05 -0.28480123E-05 -0.12797369E-05
 -0.16374171E-05 -0.24009631E-04 -0.24629599E-04 -0.47517962E-04  0.52854845E-05
  0.32923483E-04  0.24412276E-05  0.18034816E-04  0.17398662E-05  0.57209704E-04
 -0.35672023E-06  0.93442442E-06 -0.22103975E-05  0.86313624E-06 -0.26150297E-05
 -0.19879663E-05 -0.94646300E-06  0.48210160E-06  0.21827240E-06 -0.14473352E-05
 -0.19359644E-05  0.11301835E-05  0.93704989E-06  0.22560829E-06  0.12638422E-05
 -0.31410316E-06  0.23743077E-06 -0.12278507E-05 -0.15892817E-05 -0.65061583E-07
 -0.78810472E-06  0.53786926E-06  0.54354947E-06  0.12459748E-05  0.14226463E-05
  0.26045370E-06  0.63792755E-06 -0.72667626E-06 -0.17909233E-05 -0.85947707E-06
  0.23627580E-05 -0.18082359E-05 -0.12719012E-05 -0.37820011E-06  0.80076930E-06
 -0.18305567E-05 -0.13087803E-05  0.49824981E-05 -0.25950337E-05 -0.20932580E-05
  0.29805656E-05  0.23079661E-05 -0.11065016E-05  0.14508558E-05  0.28070391E-05
  0.16417444E-04 -0.33789071E-05  0.56974646E-05 -0.28045034E-05 -0.23232830E-04
 -0.18138453E-04  0.19130256E-05  0.14046272E-04 -0.12043930E-04  0.14258911E-05
  0.16815009E-05  0.37259870E-05  0.25010882E-05  0.24020494E-05 -0.38277319E-05
  0.11487263E-05 -0.99428423E-06 -0.19331605E-05  0.14268955E-04  0.92916659E-06
  0.37547702E-06  0.92992370E-05 -0.28444214E-04  0.15289236E-04 -0.71513135E-05
  0.19408527E-05  0.17319057E-04  0.52342464E-06 -0.47564878E-05  0.44622980E-05
  0.21336139E-06  0.75270776E-06  0.19751795E-05  0.80866805E-06 -0.51036097E-06
 -0.27842076E-06 -0.53010584E-05 -0.32237691E-04  0.42840882E-05  0.33519442E-05
  0.27975362E-04  0.20605213E-04 -0.16154792E-04 -0.12535716E-04 -0.30497369E-05
 -0.99907685E-06 -0.70272653E-06  0.25084758E-05 -0.13988502E-05 -0.28711978E-06
  0.25494707E-05  0.10735092E-05 -0.22174998E-05 -0.98201698E-06 -0.56267843E-05
 -0.42276454E-05  0.45430309E-04 -0.19592658E-05  0.64814552E-04 -0.12136336E-04
 -0.10416082E-04  0.19919714E-05 -0.19767019E-04 -0.23590684E-06 -0.82755591E-07
 -0.76652080E-06 -0.71586136E-06  0.16880998E-05  0.13738358E-05  0.97103675E-07
  0.30104049E-06 -0.14436380E-05 -0.83166063E-06  0.78205861E-06 -0.10004179E-05
 -0.72085616E-06  0.57847447E-05  0.41171482E-05  0.26801378E-05  0.51533488E-06
  0.30281704E-05 -0.13629813E-06 -0.88552512E-06  0.16358105E-05  0.13472766E-05
  0.45537485E-06 -0.40457213E-06 -0.14195439E-06  0.16528025E-06  0.32530495E-05
  0.16364768E-05  0.11283684E-05  0.74327377E-06  0.15893289E-05  0.12224466E-06
 -0.12135959E-05  0.20616318E-05  0.39233947E-06  0.87275292E-06  0.10197781E-04
  0.88917049E-05  0.13949133E-04 -0.16312272E-05 -0.93911803E-05  0.43540430E-05
  0.44274996E-05  0.48111403E-05  0.59524740E-04  0.67637963E-05  0.20916017E-03
 -0.15405082E-03  0.52200750E-04 -0.19182456E-03  0.93869194E-03  0.43810914E-06
 -0.54465066E-04  0.11551179E-03  0.54913049E-05  0.35905912E-05 -0.14339401E-05
 -0.10040961E-05  0.62240543E-05  0.31428553E-07  0.86434594E-05 -0.48777281E-05
 -0.25873654E-05 -0.13103437E-05  0.27793068E-05  0.30069938E-04  0.32086179E-05
  0.64475345E-05 -0.18786762E-04 -0.29319885E-04  0.17839237E-06 -0.59635117E-05

 -0.15777986E-04 -0.19249148E-04 -0.18797922E-04  0.29175622E-04 -0.73225908E-05
 -0.25615447E-04  0.20111078E-05 -0.48551534E-05 -0.11682590E-04  0.11173402E-04
 -0.40702829E-04 -0.16158694E-04 -0.33237855E-04  0.13300783E-05 -0.11895381E-04
  0.15621067E-04  0.10063002E-05  0.12330704E-04  0.23385180E-04 -0.35681024E-04
 -0.31669785E-03  0.87917136E-04 -0.50686862E-03  0.78130884E-04 -0.62196799E-03
  0.12070252E-03 -0.76863854E-04 -0.17945943E-04 -0.97516017E-06  0.13969557E-04
 -0.63459477E-04 -0.63560394E-05  0.37533728E-04  0.26349643E-05 -0.24665932E-04
  0.11740636E-05  0.88186055E-04  0.94162402E-04 -0.93661595E-04 -0.14802742E-03
 -0.26960459E-03  0.14766854E-03 -0.55808264E-04 -0.22965590E-03  0.14437402E-03
 -0.51027245E-05  0.87221052E-05  0.32084368E-05  0.14976545E-05 -0.34712945E-04
  0.12915365E-04 -0.10080011E-04  0.20542328E-04  0.55719871E-05  0.14058388E-04
 -0.33527357E-04  0.19435438E-04 -0.19840599E-04  0.31462886E-04  0.79624994E-06
  0.93780755E-05  0.19009937E-04  0.11742723E-04  0.17329247E-05  0.21492916E-04
  0.89123533E-05 -0.19812552E-04  0.39051099E-05  0.51930770E-05 -0.48998630E-05
 -0.16496276E-05  0.36586198E-05  0.48002953E-05  0.10006700E-04 -0.59339222E-05
  0.60618378E-05  0.26452675E-04 -0.30359029E-04  0.42380305E-05  0.18328089E-05
  0.12436899E-05 -0.13961613E-04  0.75865356E-05 -0.55218285E-06  0.10385393E-04
  0.20530979E-04 -0.11243700E-04 -0.97765532E-06  0.88619092E-05  0.65586371E-05
  0.47865168E-04 -0.23433488E-03  0.41994455E-04 -0.55711340E-04 -0.35227422E-03
  0.86118777E-04  0.16520020E-03 -0.37889352E-04 -0.64586228E-04  0.20012701E-04
  0.61282332E-05  0.21251641E-04  0.90977000E-05  0.35251884E-06  0.10782668E-04
 -0.63572181E-05 -0.52307670E-05 -0.17321130E-04 -0.22782304E-03  0.14544892E-03
  0.11602951E-03 -0.75343669E-03  0.24793514E-03  0.71081627E-04  0.20162527E-03
  0.13321310E-04  0.11915205E-03  0.20792807E-05 -0.10901337E-04  0.46181241E-05
  0.35540981E-05  0.22991313E-04 -0.14323933E-05  0.24058115E-05  0.19592418E-05
  0.67880067E-05 -0.48636064E-03  0.25115104E-03  0.86329808E-04 -0.21913896E-03
  0.25193808E-03  0.21215486E-03  0.63236915E-04 -0.73916062E-04  0.13472521E-03
  0.59067997E-05 -0.50150707E-05  0.10541603E-04  0.67529723E-05 -0.33986753E-05
 -0.93399293E-05 -0.53143600E-05  0.77924016E-05 -0.16934881E-04 -0.55047437E-07
  0.19169915E-03 -0.26879910E-04  0.19643595E-04  0.78770716E-05  0.22975560E-04
  0.11577200E-03  0.50638358E-04  0.35255771E-05 -0.35983232E-05  0.10403929E-04
  0.11097380E-04  0.33991500E-05 -0.17410932E-04  0.12210925E-05 -0.16894924E-04
 -0.10460999E-04 -0.96068993E-05 -0.23831990E-05  0.65297757E-05  0.12612810E-04
 -0.18573458E-04 -0.10173140E-05 -0.60665128E-05  0.68887901E-05 -0.12054529E-04
  0.44085824E-05 -0.57891885E-05 -0.29684400E-05 -0.52233006E-05 -0.82992948E-05
 -0.17546112E-04  0.10913944E-04  0.94220589E-05  0.25006943E-05  0.15218097E-04
 -0.13229365E-05 -0.24813947E-05 -0.17268433E-04  0.66471440E-05 -0.63672795E-05
  0.16463951E-05  0.18475553E-04 -0.49414535E-05 -0.32775938E-04 -0.20181065E-03
 -0.10654672E-05 -0.31353550E-04 -0.51009764E-04  0.54061371E-04 -0.58474337E-05
 -0.22559711E-03 -0.48666522E-04  0.67637963E-05  0.38933120E-02 -0.15136879E-02
 -0.19163865E-02  0.16303857E-04  0.62719309E-03  0.78321855E-03 -0.16086292E-02
 -0.18788775E-02  0.80299845E-03 -0.61597335E-08  0.50896747E-06 -0.22905471E-04
 -0.17662660E-05  0.17634355E-04  0.83256479E-05  0.13210163E-04 -0.12079185E-04
 -0.15081110E-04 -0.47765341E-04  0.17771193E-04  0.32811606E-03  0.34610286E-03
  0.52995282E-04 -0.16947865E-03 -0.98385725E-04  0.13386292E-04  0.83210089E-04

 -0.14691430E-05 -0.68778519E-04  0.43044636E-04 -0.11872544E-04  0.46800351E-05
  0.41780701E-04  0.25767033E-06 -0.90731308E-05 -0.27523248E-05 -0.43714085E-04
  0.77411623E-04 -0.34725109E-04  0.40625668E-04 -0.97867763E-04  0.44799270E-04
 -0.54028550E-04  0.84063263E-05 -0.40953712E-04 -0.35118573E-04  0.59733687E-05
  0.25619092E-03 -0.91121877E-04  0.60662567E-03 -0.39714187E-03  0.91458134E-03
 -0.74714359E-04  0.97470940E-04  0.39312657E-04  0.83098820E-04 -0.21914284E-05
 -0.26816896E-04  0.10287473E-03  0.93718495E-05 -0.74208943E-04  0.67099947E-05
 -0.51025926E-05 -0.34797407E-03 -0.44996348E-03 -0.33488567E-03  0.13206818E-03
 -0.74118684E-04  0.88195799E-04  0.12022522E-03  0.14916965E-03  0.56954175E-04
  0.31634753E-04 -0.13609793E-04 -0.14348012E-05  0.22229003E-04 -0.48018661E-04
 -0.42600596E-05  0.40150648E-05 -0.61542332E-05  0.15125745E-05 -0.73954247E-06
  0.13176950E-04  0.97272598E-05  0.13462175E-04 -0.26036681E-04  0.18067203E-04
 -0.14675535E-04 -0.59268540E-05 -0.17820288E-04  0.32198238E-06 -0.16442231E-04
 -0.79739763E-05  0.36287508E-04  0.88547007E-05  0.15154858E-05  0.51891095E-05
  0.17165915E-04  0.20572063E-05 -0.31101606E-04 -0.37994542E-04  0.20642560E-04
  0.78331078E-05  0.20850797E-04  0.11819024E-04 -0.40707769E-05  0.11929764E-04
 -0.69651613E-05  0.26714813E-05  0.18063872E-04 -0.14671704E-04 -0.11506180E-04
  0.64873791E-05  0.31247724E-04 -0.24519464E-05  0.10083247E-04 -0.12155698E-04
 -0.35169999E-04  0.14883465E-03 -0.59189520E-04  0.11425068E-04  0.59080430E-04
 -0.34642951E-03 -0.19763450E-03  0.97502965E-04 -0.64729282E-03  0.87984633E-05
  0.46527654E-04  0.34645327E-05  0.92210158E-05  0.22405137E-05 -0.27024537E-04
  0.10344915E-04 -0.14208654E-04 -0.49812753E-05  0.30344906E-04  0.31892802E-03
  0.42471541E-03  0.41676035E-03 -0.15909880E-03 -0.62202829E-04 -0.17688498E-04
  0.14473426E-03  0.99295008E-04 -0.11525829E-04 -0.59468321E-04  0.96336290E-05
 -0.14787987E-04 -0.44171477E-05  0.14205131E-05  0.39937552E-04  0.12197537E-04
  0.50629794E-05  0.14887856E-03 -0.31756701E-03  0.54448315E-03  0.61053831E-03
  0.71809929E-04  0.86645600E-04 -0.52792944E-03 -0.10815347E-03  0.29508332E-03
 -0.14255466E-04 -0.80861633E-05  0.35389246E-05 -0.39073102E-05  0.43858935E-05
  0.18327570E-04  0.14976950E-04 -0.19746842E-04  0.28733879E-05  0.15547065E-04
 -0.38995095E-03  0.37885755E-03  0.61166130E-05 -0.49912146E-04 -0.57952232E-04
 -0.16965024E-04 -0.12840683E-03  0.31576675E-03  0.13851307E-04  0.14189814E-04
 -0.17133769E-04 -0.18611698E-04  0.49692561E-04  0.12487464E-04 -0.54298999E-06
  0.10377699E-04 -0.22272290E-04 -0.58397422E-05  0.10150526E-04 -0.21799266E-04
  0.70170788E-05  0.27513278E-04  0.32005663E-05  0.19971758E-04  0.86312951E-06
  0.34263286E-05 -0.30072313E-05 -0.25070884E-05  0.58671665E-05  0.14197682E-04
  0.71468908E-06  0.24954836E-05 -0.23827009E-04 -0.57345761E-05 -0.23018835E-04
 -0.19539517E-05 -0.24513420E-05  0.13093651E-06  0.21839743E-04 -0.18137183E-04
 -0.15592988E-04  0.20363472E-05 -0.12630683E-04  0.27451645E-04  0.25731970E-03
  0.27212415E-03  0.20500751E-03 -0.17151089E-03 -0.12078722E-03 -0.71138582E-05
  0.11131221E-03  0.20446319E-04  0.20916017E-03 -0.15136879E-02  0.78371770E-02
  0.29544335E-02  0.18316984E-02 -0.28953263E-02  0.42958671E-02  0.83489521E-03
  0.30551541E-03 -0.10424656E-02  0.36821864E-04  0.13739033E-04  0.82947741E-05
 -0.11532976E-04  0.36370873E-04 -0.15458674E-05  0.65611819E-04 -0.26709715E-04
 -0.14253472E-04  0.18064865E-03  0.93600331E-04 -0.53635491E-03 -0.70005044E-03
  0.20331301E-04 -0.10751417E-03  0.28533494E-04  0.86224713E-04  0.25700387E-03

 -0.16654633E-05  0.38523100E-04  0.26561376E-04 -0.64685726E-04  0.90077593E-04
  0.74927241E-04 -0.80948325E-05  0.14958244E-04  0.93147226E-04 -0.51130225E-04
  0.79322773E-04  0.73938344E-04 -0.12864811E-04  0.23910650E-04  0.63869374E-04
  0.83436403E-05  0.25114221E-06 -0.63408771E-05 -0.43525373E-03  0.82744698E-03
  0.55841396E-03  0.10125534E-02  0.35497788E-03  0.79743155E-04  0.29648925E-03
  0.15056898E-03 -0.42021304E-03  0.40771114E-04  0.36511143E-04 -0.27562770E-04
 -0.84470466E-06 -0.70920693E-06 -0.87859182E-04 -0.41470634E-04 -0.36141684E-04
 -0.26788762E-04 -0.28651025E-03 -0.83641129E-04  0.17998603E-03 -0.26481894E-03
  0.27403947E-04  0.51674015E-03  0.19010773E-03  0.50233096E-03  0.35459553E-04
  0.31637963E-04 -0.96392893E-05  0.69621962E-05  0.27504441E-04  0.13115462E-04
  0.14015137E-04  0.24325623E-04 -0.61462852E-05 -0.85918077E-05  0.27716140E-04
  0.47591754E-04  0.12243734E-04  0.52254190E-04 -0.21791490E-04 -0.94826166E-05
 -0.30876353E-04 -0.16439388E-04  0.85072723E-05  0.81962883E-05  0.44466975E-05
 -0.79363834E-05  0.23828280E-04  0.13380360E-04  0.27007228E-04  0.67037902E-06
  0.25107311E-04 -0.18787720E-05 -0.27552075E-04  0.31008729E-04  0.39011191E-04
  0.72882688E-05 -0.32449489E-04  0.45808912E-04  0.44806402E-05  0.79020431E-05
  0.14872741E-04 -0.30018521E-04 -0.69134854E-04 -0.47391206E-04 -0.83427709E-05
 -0.10330138E-04  0.16520490E-04  0.24766070E-04 -0.23571546E-04  0.15856022E-04
 -0.63984266E-04  0.33030764E-04 -0.37993699E-03 -0.39977719E-03  0.79144676E-03
  0.14000483E-03 -0.19035809E-03 -0.16927486E-03  0.27376410E-03 -0.20231768E-04
  0.61618341E-04 -0.31176247E-04  0.10542400E-04  0.27904214E-04 -0.69757496E-05
 -0.29880332E-04  0.12752814E-04 -0.21774902E-04  0.38913005E-03  0.29760615E-03
  0.23080113E-03  0.32749649E-04  0.30540500E-03  0.36130617E-04  0.16080269E-03
 -0.39775362E-03  0.58090273E-03  0.23516214E-04  0.22876702E-04 -0.13546630E-04
  0.83061509E-05 -0.59139813E-04  0.34351119E-04 -0.16903617E-04 -0.17121147E-04
 -0.34509462E-04  0.41743308E-03  0.43730477E-03 -0.17903590E-03 -0.21457575E-03
 -0.10212866E-02  0.15175500E-03  0.27091153E-03  0.30424653E-03 -0.44359129E-03
  0.13471370E-04 -0.61156515E-04  0.18729748E-04  0.17307919E-04 -0.72165834E-04
  0.49797249E-04  0.62152898E-05 -0.13994705E-04 -0.69602134E-05  0.16599811E-03
 -0.12830384E-03  0.40308496E-03  0.57695072E-04 -0.77780535E-04 -0.89257553E-04
  0.14570019E-03  0.40211722E-04  0.15523001E-03  0.41888098E-05  0.11640751E-04
  0.22547461E-04 -0.19249564E-04  0.31336221E-04  0.20810250E-04 -0.45721030E-05
  0.29830291E-04 -0.40601506E-04  0.16693734E-04 -0.41815682E-04 -0.25180420E-05
  0.11568371E-04  0.29953035E-05 -0.29476578E-04 -0.16511518E-04 -0.29590210E-04
 -0.64134772E-05 -0.25018007E-04  0.44268205E-04 -0.25297633E-04  0.40960153E-05
  0.15286639E-04  0.23119820E-04  0.12303904E-04  0.79920814E-05  0.14613312E-04
 -0.26129846E-04  0.91721531E-05  0.18461663E-05 -0.25181213E-05  0.21323281E-04
 -0.14773148E-04 -0.17751948E-04  0.20730153E-06  0.38810906E-04  0.10961890E-03
  0.37498116E-03 -0.99261857E-04 -0.20818894E-03  0.37443940E-03 -0.19831473E-03
  0.14765644E-03 -0.10015236E-03 -0.15405082E-03 -0.19163865E-02  0.29544335E-02
  0.12253870E-01  0.14719505E-02  0.22079984E-02 -0.62528531E-02  0.27242723E-03
  0.88244367E-03 -0.26361284E-02 -0.10734649E-04 -0.73439494E-05  0.28017701E-04
  0.19066854E-04 -0.20359713E-04 -0.97163272E-05  0.82799237E-05  0.34315096E-04
  0.38458013E-05  0.18069185E-03  0.34029681E-03 -0.39618801E-03 -0.32681593E-03
  0.22858038E-03 -0.59893149E-04  0.63751914E-05  0.11714196E-03 -0.12676869E-03

 -0.71921210E-05 -0.33066062E-05  0.40685191E-04  0.62107670E-05  0.25813552E-04
  0.28172842E-04 -0.23192553E-05 -0.16534302E-04  0.21943682E-04  0.60691967E-04
 -0.69447654E-06  0.23041612E-04  0.22361975E-04 -0.10204312E-04  0.30722652E-04
 -0.30276110E-04 -0.70393909E-05 -0.16528337E-05  0.12760322E-03  0.29755803E-03
 -0.15331262E-03  0.10326649E-03  0.69997339E-04 -0.86427100E-04  0.94949305E-04
 -0.91031513E-04  0.49826862E-04  0.50648882E-04  0.42514082E-05  0.71297208E-04
 -0.12116002E-04  0.22735034E-04 -0.81058156E-05 -0.12912679E-04  0.20885675E-04
  0.18278679E-04  0.23160606E-03 -0.54856362E-04  0.16287969E-03 -0.77303350E-03
  0.33144511E-03  0.15644358E-03 -0.21942040E-03 -0.43858641E-03 -0.40155762E-04
  0.67296080E-06  0.40312344E-05 -0.34060841E-04  0.27439274E-04 -0.16250351E-04
  0.21493802E-05 -0.27178105E-04  0.26689562E-04 -0.25679153E-05  0.18493149E-04
 -0.13023381E-05  0.22161333E-04  0.77290111E-05  0.15779141E-04 -0.15342232E-04
 -0.94115538E-05  0.12944188E-04  0.43042259E-05  0.26452040E-05  0.10160638E-04
  0.32996175E-05  0.23023273E-04 -0.12840717E-04  0.31637815E-04 -0.70177902E-05
  0.17076704E-04  0.91966270E-06  0.33211027E-04 -0.63371715E-05 -0.10169558E-05
 -0.95466817E-05  0.15396512E-04  0.21585949E-04  0.85987855E-05 -0.95210135E-05
 -0.51943797E-05  0.31768451E-04 -0.38046878E-05 -0.10389075E-04 -0.61700061E-04
  0.12422183E-04  0.25624855E-04  0.32711560E-05  0.66795904E-06 -0.39707054E-05
  0.36473845E-04 -0.48864151E-04 -0.25433870E-03 -0.11307807E-03 -0.88413393E-04
 -0.18336447E-03  0.45915975E-04  0.17991273E-03 -0.13155110E-03  0.69784335E-05
 -0.48204245E-04  0.54541613E-05  0.38827462E-04  0.31638572E-05 -0.12284356E-04
  0.11224632E-04  0.74933881E-05  0.57189339E-05 -0.48903416E-04  0.85524637E-04
 -0.13162872E-03  0.13930166E-02 -0.38956023E-03 -0.48287083E-03  0.28538313E-03
 -0.13362589E-03 -0.20913762E-03  0.17574494E-04 -0.32953037E-04  0.45379513E-05
 -0.37557296E-04  0.50092331E-05  0.15434108E-04 -0.29619172E-05 -0.24597566E-04
 -0.51431544E-05 -0.48757647E-03  0.19318726E-03  0.21924904E-03  0.79898262E-03
  0.49626815E-03 -0.24564908E-03 -0.59129224E-03 -0.27318424E-03 -0.11210940E-04
 -0.36679545E-04 -0.49310317E-05  0.84843279E-05  0.11985357E-04 -0.58386657E-05
  0.15377688E-04 -0.70002741E-05 -0.15260660E-04 -0.25376778E-04 -0.14402826E-04
  0.20829652E-04  0.13644973E-03 -0.41242407E-03  0.34435769E-03 -0.10794878E-03
  0.21743817E-03 -0.15933738E-03  0.35617523E-03 -0.19324761E-04  0.14473193E-04
 -0.23932330E-04  0.27132385E-04  0.11482278E-05 -0.23728566E-04 -0.62430552E-05
 -0.45405240E-05 -0.51814454E-05  0.18590673E-04  0.18014144E-04 -0.97805239E-05
  0.35216689E-04 -0.28803422E-04  0.12991123E-04  0.89174403E-05  0.53972840E-05
  0.76035682E-05 -0.21176879E-04  0.27398327E-05 -0.52100456E-05  0.27581867E-04
  0.61401297E-05 -0.25031420E-05 -0.11050656E-04  0.46192516E-05 -0.15915629E-05
  0.77963061E-05  0.97616093E-05  0.15936532E-04  0.53314941E-05  0.18183386E-05
 -0.11106856E-04  0.53057512E-05 -0.19306934E-05  0.42066268E-05  0.78667312E-04
  0.26244007E-03  0.11719855E-04 -0.23927454E-03  0.78081177E-04  0.66872520E-05
  0.59285134E-05 -0.57912142E-05  0.52200750E-04  0.16303857E-04  0.18316984E-02
  0.14719505E-02  0.78483634E-02 -0.24803619E-02 -0.29417382E-02 -0.10177126E-02
 -0.22796359E-02 -0.11809763E-02 -0.58763643E-05  0.10807838E-04 -0.28841468E-05
 -0.59372546E-04  0.40518259E-04  0.25627629E-05  0.25205808E-04 -0.30487679E-04
 -0.18356386E-04 -0.75822989E-04 -0.15885347E-03  0.15654006E-03  0.12079541E-03
 -0.80761234E-04 -0.36011794E-05 -0.51550630E-04  0.20183866E-03  0.66268094E-04

  0.10237838E-04  0.99474946E-04 -0.37199479E-04 -0.31674055E-04  0.80902988E-04
 -0.20990340E-05 -0.10401082E-04  0.24506412E-04  0.44780070E-04  0.30554221E-04
  0.17224722E-04  0.60496342E-04 -0.11432244E-05  0.74137205E-04 -0.50083127E-04
  0.50523037E-04  0.23615770E-04 -0.60286980E-05 -0.41900113E-03  0.39747111E-03
  0.19475064E-03  0.11157232E-02 -0.10499765E-02  0.19269234E-03 -0.30521666E-03
 -0.55305577E-04 -0.70529388E-03 -0.27430153E-04 -0.30563491E-04 -0.38557310E-04
  0.27539557E-04 -0.76804339E-04 -0.12251720E-04  0.25042439E-04 -0.15720343E-04
 -0.46517869E-05  0.16687231E-03  0.65991395E-03  0.53129069E-03  0.17144845E-03
 -0.34958277E-04 -0.39442602E-03 -0.34758327E-03  0.72151310E-04 -0.28783598E-03
  0.10310129E-04 -0.26589705E-05  0.85640819E-05  0.28201382E-06 -0.39014435E-05
  0.22240524E-04  0.16029675E-04  0.28024561E-05 -0.28984447E-04  0.27073040E-04
 -0.20614133E-04  0.34165125E-05  0.17149945E-04 -0.78082124E-04  0.10349364E-04
 -0.35568692E-05 -0.60078872E-05  0.48167311E-05  0.13665629E-04  0.45621226E-04
  0.11133941E-04 -0.22845278E-04  0.92750333E-05 -0.13518121E-06 -0.27981129E-04
 -0.10205012E-04 -0.15425135E-04 -0.13867812E-04 -0.19570929E-05 -0.91179536E-05
  0.72362964E-05 -0.67570299E-04  0.17167839E-04 -0.29767917E-04  0.40508114E-05
  0.24925311E-05 -0.17411999E-04 -0.78300172E-04  0.79006151E-05  0.58839448E-05
  0.68660181E-04 -0.34732408E-04  0.28947270E-04 -0.90822848E-05  0.87491921E-06
  0.98257515E-05 -0.68187251E-04  0.34572570E-04 -0.21611389E-03  0.73217522E-03
  0.20361892E-03  0.30871978E-03 -0.82888324E-04  0.18140011E-03 -0.40172192E-04
 -0.31048564E-04 -0.25363532E-04 -0.24234323E-04 -0.98706463E-05  0.33309843E-04
 -0.29621873E-04  0.24122299E-04  0.42110927E-05  0.19865290E-03 -0.14542718E-03
 -0.51740310E-03 -0.32821112E-03  0.66889516E-03 -0.67545431E-03  0.32181217E-03
  0.49047484E-04 -0.26110522E-03 -0.22873805E-05  0.10715333E-03 -0.33484222E-05
  0.28984928E-04 -0.38591615E-04  0.23071315E-05 -0.23824011E-04 -0.23017403E-04
 -0.84518353E-04  0.32416086E-03  0.41397472E-04 -0.80800823E-03 -0.12325079E-03
 -0.17814950E-02  0.83632762E-04  0.67594636E-03  0.60435216E-04 -0.80317758E-03
  0.67252182E-05 -0.59263232E-04 -0.11021789E-04  0.10849887E-05 -0.53865626E-04
  0.45661786E-04  0.16341422E-04  0.14205423E-04  0.24111579E-05 -0.15073513E-03
  0.16358342E-03 -0.17484570E-03  0.81637983E-04 -0.11523550E-03  0.86856754E-04
  0.27844892E-04  0.11045751E-03 -0.29553583E-05  0.72360360E-06 -0.32006892E-04
  0.64458639E-07  0.18593048E-04 -0.19076474E-04 -0.29482057E-04 -0.31541350E-05
 -0.10105268E-04 -0.62849458E-05 -0.20984009E-05 -0.11591051E-04  0.29034147E-04
 -0.23882145E-04  0.12708250E-04  0.16485218E-04 -0.43512376E-04 -0.12999598E-04
  0.50336973E-05  0.74877759E-05  0.43260745E-04 -0.99675594E-05 -0.16182282E-04
  0.35904294E-04 -0.15768705E-06  0.49480410E-05 -0.11594840E-05  0.35417292E-04
  0.12300591E-04 -0.67183078E-05  0.92695353E-05 -0.31508066E-04  0.48749985E-04
 -0.67278122E-05  0.37851165E-04 -0.15582785E-04 -0.87400228E-05 -0.23635543E-03
  0.11011887E-03 -0.23018656E-03 -0.13241528E-04  0.69821487E-03 -0.13558493E-03
 -0.12762297E-04 -0.76945571E-04 -0.19182456E-03  0.62719309E-03 -0.28953263E-02
  0.22079984E-02 -0.24803619E-02  0.13219145E-01 -0.93060910E-02 -0.18080585E-02
  0.27567660E-03  0.20643677E-02 -0.15480664E-04 -0.79863898E-05  0.25919838E-04
  0.48882956E-04 -0.39994614E-04 -0.24020311E-04 -0.39411265E-04  0.46896072E-04
  0.28913043E-04 -0.12531308E-04  0.51153138E-03  0.48695608E-03  0.35388644E-03
  0.46150498E-03  0.39749811E-04 -0.40035037E-04  0.57258880E-04 -0.21128097E-03

 -0.61360125E-04 -0.28002759E-03 -0.51678634E-04  0.13834330E-03 -0.20031403E-03
 -0.47047816E-04  0.62857027E-05 -0.60950525E-04 -0.27902552E-03 -0.76249038E-04
  0.27921367E-04 -0.26006754E-03 -0.25757718E-04 -0.98545390E-04  0.48546366E-04
 -0.41391072E-04 -0.85154580E-04  0.20893340E-03  0.66157093E-03  0.57463968E-03
 -0.11571079E-02  0.29386046E-02 -0.16236068E-02 -0.23767756E-03 -0.44607028E-03
  0.53553795E-03  0.13628736E-02 -0.60434491E-04 -0.40147859E-04  0.10073424E-03
 -0.53707158E-04  0.91279395E-04  0.94967724E-04 -0.10647151E-03  0.88442198E-04
 -0.57420858E-04 -0.64411158E-03 -0.19312091E-02 -0.13852078E-02  0.77876675E-03
  0.67776735E-03  0.57165934E-03  0.15960789E-02 -0.33696392E-03  0.18849570E-02
  0.48555816E-04  0.29819636E-04  0.62485904E-04 -0.54015784E-04 -0.41438486E-06
 -0.80886298E-04 -0.13946427E-04 -0.16054467E-04  0.64938055E-04 -0.64240738E-04
 -0.94060698E-04  0.12531268E-04  0.18568074E-04 -0.10684048E-05  0.47970679E-04
 -0.19370027E-04  0.72444141E-05 -0.11611547E-03 -0.48406701E-04 -0.47658669E-04
 -0.96042714E-04  0.47693330E-04 -0.16835768E-04 -0.10888040E-03  0.50983729E-04
 -0.31395440E-04  0.74775753E-04  0.58328156E-07  0.20356425E-04 -0.24534763E-04
  0.73992924E-04  0.85387937E-04 -0.12171639E-03 -0.11284733E-04 -0.60352277E-04
  0.11531502E-04 -0.51732952E-04  0.18730254E-03 -0.16262109E-04 -0.25214445E-04
  0.47643898E-04  0.13314381E-03 -0.36323773E-04  0.46413696E-04 -0.42909902E-06
  0.19475960E-03 -0.54554261E-03  0.11202447E-02  0.11254712E-03 -0.67636530E-03
 -0.12581832E-02 -0.52477037E-04  0.35212337E-06  0.39333657E-03 -0.50849993E-05
  0.10700940E-04  0.11848918E-03  0.93008158E-04 -0.41906099E-05 -0.19576964E-03
 -0.23785052E-04 -0.78132023E-04  0.85923341E-04  0.45549128E-04 -0.62848570E-05
  0.13962936E-02  0.13359272E-02 -0.12527101E-02  0.19970278E-02 -0.44962776E-03
 -0.83858811E-03  0.32250944E-03  0.19459669E-04 -0.12727108E-03  0.78034538E-04
  0.63434166E-04 -0.35113312E-04  0.13330562E-03  0.65599781E-04  0.79019186E-04
  0.12447271E-03  0.14616977E-04 -0.63938267E-03  0.12015499E-02 -0.56307687E-03
  0.12499437E-02  0.83029169E-03 -0.26925296E-03 -0.47587125E-03  0.17897454E-02
 -0.49852179E-04  0.47805029E-04  0.37302539E-04 -0.28082738E-04  0.64173343E-04
 -0.40947399E-04  0.85637832E-04 -0.64773521E-04 -0.32204420E-04  0.21305349E-03
 -0.22849749E-03  0.11851568E-02  0.15460464E-03  0.93422996E-03 -0.33966125E-03
 -0.78619715E-03  0.59538775E-03 -0.66595383E-03  0.22921493E-04 -0.17213824E-04
  0.97014608E-04 -0.28053958E-04 -0.68167408E-04  0.10306912E-03  0.81560569E-05
  0.61781055E-04 -0.80975662E-04 -0.90526925E-05  0.52845881E-04 -0.13580889E-03
 -0.32156436E-04  0.13291660E-03 -0.25034999E-04  0.59587948E-04  0.10562342E-04
  0.68775496E-04 -0.18047817E-04 -0.64158169E-04  0.10477124E-03  0.27557692E-04
 -0.82222859E-05  0.22466018E-04  0.30279131E-05  0.10899220E-05 -0.32129517E-04
  0.70062850E-05  0.79920630E-05  0.13298979E-04  0.14558247E-04 -0.39352952E-04
  0.49796360E-04  0.87310257E-05  0.85799284E-04 -0.12285446E-04  0.24250042E-03
  0.13581771E-03  0.65377544E-03  0.21109785E-04 -0.51676844E-03  0.12767685E-03
 -0.31786969E-04  0.20898358E-03  0.93869194E-03  0.78321855E-03  0.42958671E-02
 -0.62528531E-02 -0.29417382E-02 -0.93060910E-02  0.60336452E-01 -0.10355604E-02
 -0.88857544E-02  0.10575656E-01  0.22885777E-04  0.35298053E-04 -0.39721166E-04
 -0.48470261E-04  0.14833720E-03  0.10345281E-03  0.16260649E-03 -0.17727987E-04
 -0.32195420E-04 -0.36465981E-03 -0.43616271E-03 -0.16724677E-03 -0.21370557E-03
  0.34489163E-03 -0.16525144E-02  0.95871234E-04 -0.88803337E-03  0.17061178E-03

  0.53447306E-04  0.35534765E-04  0.13740508E-04 -0.27602578E-05 -0.44839943E-04
  0.51470999E-04 -0.23089723E-04  0.16940712E-05 -0.81891651E-05 -0.25800651E-05
  0.75755928E-04 -0.16492490E-04 -0.19934146E-04 -0.46053394E-04  0.34098613E-04
  0.60205054E-06 -0.16668701E-04 -0.22082400E-04 -0.17570941E-03 -0.58902991E-03
  0.22793137E-03 -0.27634707E-03  0.52199179E-03 -0.17068352E-03 -0.21154323E-03
 -0.56457463E-04  0.93540552E-04  0.22797981E-04  0.79814696E-04 -0.11988503E-04
  0.41894551E-05  0.65947266E-04 -0.19457692E-04  0.28333875E-04 -0.76186944E-05
 -0.25040715E-04 -0.26675498E-03  0.22449313E-03 -0.22890605E-03  0.19373750E-03
 -0.77858573E-03 -0.40261305E-03 -0.36138499E-03  0.15551856E-03 -0.55120364E-03
 -0.28314336E-05 -0.95342291E-05  0.46278948E-05  0.14763168E-04  0.33865554E-04
 -0.25620073E-04  0.84397157E-05 -0.10758707E-04 -0.45009383E-05  0.12654567E-04
  0.13255690E-04 -0.14864057E-05  0.14162540E-05 -0.16235628E-04 -0.17717007E-05
 -0.66454374E-05  0.79537269E-05 -0.29435517E-04 -0.10529980E-04 -0.40574800E-04
 -0.12353780E-04 -0.13757944E-05  0.39663730E-06  0.14036614E-05 -0.45993224E-05
 -0.76157191E-05 -0.12666188E-04  0.14440812E-05 -0.20712120E-04 -0.20336269E-04
 -0.22401625E-04 -0.52673071E-04  0.34343892E-04 -0.91767983E-05  0.13698158E-04
  0.51900962E-05 -0.15015682E-04 -0.38674692E-05 -0.51118524E-05  0.93830458E-05
  0.11105030E-04 -0.18681112E-04  0.32422964E-05  0.10374415E-04  0.83267188E-05
 -0.11711348E-03 -0.12213594E-03  0.26580192E-03  0.44816501E-04 -0.15183831E-03
  0.31939558E-04 -0.58765426E-04 -0.98060607E-04  0.96655884E-04 -0.90050611E-05
 -0.15031368E-04 -0.27668678E-04 -0.35454131E-04  0.26033530E-05 -0.21029750E-05
  0.14100066E-04  0.33625919E-05  0.34254618E-04  0.51698067E-04 -0.41721242E-03
 -0.16710312E-03  0.60234569E-03 -0.19300681E-04 -0.45877252E-03 -0.27214236E-03
  0.47005395E-04 -0.75234385E-04 -0.16805117E-04  0.96282775E-05 -0.67858882E-05
  0.16543413E-04 -0.25648750E-04 -0.81035329E-05  0.66973187E-05 -0.42025279E-06
  0.29586196E-04  0.21482886E-03 -0.18631555E-03 -0.21609891E-04 -0.20858462E-03
 -0.48489751E-03 -0.12546681E-03  0.33914184E-03  0.88177057E-04 -0.22905486E-03
  0.43041753E-05  0.38408116E-04  0.81704945E-05 -0.94026782E-05 -0.10995109E-04
  0.79919288E-05  0.80787172E-06 -0.96513870E-05  0.43471487E-05 -0.78394935E-04
 -0.20327890E-03  0.11094209E-03  0.36015486E-04  0.11876463E-03  0.68661743E-04
  0.72182407E-04  0.58548501E-05 -0.61707877E-04  0.12299728E-04 -0.15045941E-04
  0.40663753E-05  0.66251920E-05 -0.30761038E-05 -0.39266117E-05  0.15654692E-04
 -0.69862700E-05  0.74375249E-06 -0.19756358E-04 -0.17150183E-04  0.14414041E-04
 -0.16506532E-04  0.19337669E-04 -0.16945813E-04  0.43985984E-05  0.94928856E-05
 -0.93879799E-06  0.17956040E-04  0.89363438E-06 -0.14343750E-04 -0.23643091E-04
  0.20232035E-04  0.59404298E-05 -0.56083673E-06 -0.73844039E-07 -0.14429512E-05
  0.59683338E-05 -0.49576357E-04  0.31806709E-05  0.25216279E-04 -0.15011370E-04
  0.57717000E-05 -0.20614995E-04 -0.36521392E-05 -0.58852232E-05  0.29081945E-03
 -0.54676882E-04  0.46186519E-04  0.17054749E-03 -0.12715912E-03 -0.28308811E-04
  0.19111584E-03  0.94665449E-04  0.43810914E-06 -0.16086292E-02  0.83489521E-03
  0.27242723E-03 -0.10177126E-02 -0.18080585E-02 -0.10355604E-02  0.60738434E-02
  0.34941130E-02 -0.24898371E-02  0.32552862E-05 -0.28111525E-04 -0.96077453E-05
  0.33478473E-04  0.45557198E-06 -0.21329233E-04 -0.14576517E-04  0.59281414E-05
 -0.41347616E-05  0.48255946E-03 -0.11993750E-03  0.15576958E-03  0.27143237E-03
 -0.22379930E-04 -0.30448191E-03  0.10177453E-03 -0.95076227E-04 -0.17140571E-03

  0.60036647E-04  0.50386529E-04  0.46985416E-05 -0.39568339E-04  0.12310214E-04
  0.23116545E-04  0.23225075E-04  0.25629955E-04  0.47837494E-04 -0.12707160E-04
  0.38300172E-05  0.44705343E-04 -0.41183382E-04  0.14264126E-04 -0.22543064E-04
 -0.40978736E-05  0.32778289E-05 -0.67491805E-04 -0.76751956E-03 -0.72268479E-03
  0.16034133E-03 -0.13294518E-02  0.80775342E-03 -0.16518083E-04  0.38585961E-03
 -0.10358096E-03 -0.25227137E-03  0.83396896E-04  0.39318122E-04 -0.33756647E-04
  0.36926454E-05  0.17538006E-04  0.21142167E-04  0.22836918E-04 -0.42653585E-04
 -0.29193935E-04  0.72116360E-04  0.55602127E-03  0.92317031E-04  0.10975497E-03
  0.23363405E-03 -0.66421897E-04 -0.23896753E-03  0.46034915E-03  0.13054179E-03
 -0.15720833E-04 -0.55426317E-04  0.36047821E-05  0.24968417E-04  0.43403733E-05
  0.36928861E-05  0.42172605E-05 -0.25869603E-04 -0.31859529E-04  0.95916846E-05
  0.18265307E-04  0.31557155E-05  0.12473131E-04 -0.50178398E-04  0.83458944E-05
 -0.36009541E-04 -0.17743503E-04 -0.29386756E-04 -0.13573923E-04  0.10009616E-05
 -0.78052324E-05 -0.50912885E-05 -0.73734623E-06 -0.49116715E-05 -0.11533920E-04
 -0.22674963E-05 -0.23526508E-04 -0.18508040E-04 -0.55486222E-04  0.20993852E-04
 -0.33561840E-04 -0.46248622E-04  0.14860082E-04  0.35960829E-05  0.17095220E-04
 -0.90743854E-05 -0.18274162E-05 -0.35595164E-04  0.27375022E-05  0.32665009E-04
 -0.12389421E-04 -0.26328154E-04  0.10504365E-06  0.13261364E-04  0.11475646E-04
  0.50012776E-04  0.18136237E-03 -0.63878239E-04  0.12207084E-03 -0.53229252E-04
  0.40240894E-03  0.12088655E-03 -0.25311598E-05 -0.28629169E-04  0.47996942E-05
  0.22156784E-04 -0.34631149E-04 -0.38817045E-04 -0.63369362E-06  0.32375819E-04
  0.27160955E-04  0.21629913E-04 -0.23635165E-07  0.28339779E-03 -0.26434213E-03
 -0.17116959E-03 -0.27800419E-03  0.30907592E-04 -0.42285056E-03 -0.14409592E-03
  0.70546715E-03  0.91308750E-05 -0.13548742E-04  0.45395802E-04  0.43147322E-05
  0.13363275E-04 -0.33159715E-04 -0.26737446E-04  0.56667326E-05  0.12618962E-04
 -0.35491976E-05  0.31051549E-03  0.10933956E-03 -0.31637590E-03 -0.64722619E-03
 -0.82474009E-03 -0.81470986E-04  0.64268660E-03  0.11381562E-03 -0.15559049E-03
  0.22082339E-04  0.17878353E-04 -0.40690639E-04 -0.34535378E-04 -0.10060570E-04
  0.15055031E-04 -0.77758746E-05  0.13905207E-04  0.33477525E-04 -0.21533666E-03
 -0.15380116E-03 -0.24484552E-03  0.70760532E-06  0.19484883E-03  0.20062359E-03
 -0.17698417E-03 -0.18912617E-03 -0.53281310E-03 -0.55031961E-05 -0.22226972E-04
 -0.35267184E-04 -0.17821276E-04  0.22294747E-04  0.82131472E-05  0.12986135E-04
 -0.18583341E-04  0.28008001E-04 -0.25550819E-04 -0.20372370E-04  0.33541187E-04
 -0.65969635E-05  0.15393668E-04 -0.13238713E-05  0.14805299E-05  0.32700176E-05
 -0.19130545E-04  0.25342760E-04  0.13610619E-04 -0.31443946E-04 -0.36781457E-05
  0.12276123E-04 -0.70781705E-05  0.36033110E-05  0.75992540E-05  0.27277867E-04
  0.12340036E-04 -0.16034438E-04  0.11831978E-04  0.28733149E-04  0.15824381E-05
 -0.89620787E-05 -0.17680738E-04 -0.20650630E-04  0.18924551E-04  0.16358735E-03
 -0.17530599E-03  0.13899741E-04  0.16668253E-03 -0.80498865E-04 -0.29912522E-04
  0.27893224E-03 -0.28601710E-04 -0.54465066E-04 -0.18788775E-02  0.30551541E-03
  0.88244367E-03 -0.22796359E-02  0.27567660E-03 -0.88857544E-02  0.34941130E-02
  0.99857754E-02 -0.24125856E-02 -0.59403851E-05 -0.43684588E-04 -0.17191625E-04
  0.39587551E-04 -0.32970953E-04 -0.20428091E-04 -0.18233780E-04  0.20612051E-04
  0.38523385E-04  0.61068714E-03  0.19624540E-03  0.11667480E-03  0.38324406E-03
 -0.94159325E-04  0.13591273E-03  0.10444664E-03 -0.23199116E-05 -0.38983549E-03

  0.12546588E-04 -0.80076833E-04 -0.26132818E-04  0.46010163E-04  0.49931398E-04
 -0.11750156E-03 -0.21913519E-04  0.12330446E-04 -0.40258563E-04 -0.67456937E-05
 -0.30648061E-04 -0.91427160E-05 -0.42033382E-05 -0.15123221E-04 -0.23440594E-04
 -0.10118551E-04 -0.85075458E-05  0.66581797E-04  0.13797349E-03  0.57500386E-03
 -0.41877021E-03  0.84314530E-03 -0.11762907E-03 -0.27516911E-03  0.56919479E-03
 -0.11828250E-03 -0.19024552E-03 -0.47338014E-05 -0.56080332E-04  0.44572341E-04
 -0.83984074E-05 -0.13074693E-04 -0.22103833E-04 -0.39180969E-04  0.14538668E-04
  0.34962604E-05  0.11521458E-03 -0.34157541E-03  0.23236355E-03  0.75567401E-04
  0.92801612E-04 -0.30750785E-03  0.12086645E-03 -0.61870339E-03  0.41205832E-03
  0.22245825E-04  0.84344492E-05  0.39508656E-04 -0.20894651E-04 -0.20626950E-04
 -0.22051606E-04  0.45280182E-05 -0.22817106E-04  0.36573687E-04 -0.12805352E-04
 -0.14128966E-04 -0.17932440E-04 -0.11737286E-04  0.75144619E-05  0.15209494E-04
 -0.28604272E-04 -0.19944086E-04 -0.19812130E-05 -0.18646324E-04  0.44644846E-04
 -0.11852413E-04 -0.20047254E-04  0.21912980E-04 -0.30082262E-04  0.66800685E-05
  0.42672733E-05  0.44513453E-04 -0.13305790E-04  0.33641545E-04 -0.22050666E-04
  0.23552253E-04  0.56274949E-04 -0.67138971E-05 -0.69142250E-05  0.34400344E-05
 -0.24309556E-04 -0.54588660E-05  0.19681864E-04 -0.35073914E-05  0.12515119E-05
 -0.24976476E-04  0.14235527E-04  0.21137147E-05 -0.17569856E-04 -0.13968736E-04
  0.22412285E-03  0.19266004E-03  0.24312741E-03  0.83770398E-04 -0.45027332E-04
 -0.43349913E-03  0.13591706E-03 -0.14415060E-03  0.79040458E-04 -0.10535770E-04
 -0.64073579E-04  0.16728573E-04  0.25749975E-04  0.25145493E-04 -0.54393509E-04
 -0.13071488E-04 -0.47745914E-05  0.14609136E-05  0.13241800E-03  0.28304153E-03
 -0.48857683E-04 -0.76992664E-04  0.42210501E-03 -0.37139794E-03  0.43529424E-04
 -0.19175231E-03 -0.36193600E-03  0.11796478E-04 -0.98817682E-05  0.29442365E-04
  0.82315940E-05 -0.21179292E-04  0.28070653E-04  0.16086087E-04  0.26539043E-04
  0.97040580E-05 -0.78689646E-04  0.16298120E-03 -0.49495606E-03  0.34315177E-04
 -0.16282846E-03  0.40548940E-05 -0.26264205E-03 -0.33503554E-03  0.31688918E-03
 -0.86728996E-05 -0.83346184E-04 -0.70421862E-05 -0.29036389E-04  0.12303082E-04
 -0.12933717E-05  0.19917860E-04  0.15961742E-06  0.10796754E-04 -0.11708074E-03
  0.18312900E-03 -0.12320709E-05 -0.65012109E-04  0.35730428E-03 -0.13215895E-03
 -0.91066347E-04  0.20971792E-03 -0.11868220E-03  0.33222328E-04  0.41098826E-04
  0.53524464E-04  0.35872755E-05 -0.69058161E-04 -0.17688168E-04 -0.13992475E-04
 -0.21310070E-05 -0.80255155E-05  0.17712238E-04  0.26001444E-04 -0.15654299E-04
 -0.22702386E-04 -0.10834267E-04  0.11934897E-04  0.22973184E-04 -0.25483838E-04
  0.27331593E-04 -0.24772817E-04  0.54819330E-05  0.20977714E-04  0.77371235E-05
 -0.26441997E-04  0.14733013E-04  0.69869714E-05  0.11069895E-04  0.14981877E-06
  0.37986248E-06  0.71935669E-04  0.35422305E-04 -0.26321697E-04  0.79996929E-05
 -0.15950454E-04 -0.16763976E-04 -0.12612230E-05 -0.18477083E-04 -0.13004608E-03
 -0.17256939E-03  0.20791476E-03  0.81539879E-04  0.31219794E-05  0.20946402E-03
 -0.70624189E-04  0.59311526E-04  0.11551179E-03  0.80299845E-03 -0.10424656E-02
 -0.26361284E-02 -0.11809763E-02  0.20643677E-02  0.10575656E-01 -0.24898371E-02
 -0.24125856E-02  0.13543902E-01 -0.31284519E-05 -0.35298621E-06  0.37858736E-04
 -0.16034690E-04 -0.82230072E-05  0.28709942E-04  0.18998752E-04  0.34173135E-04
  0.57648632E-04 -0.13648240E-03  0.24168612E-03  0.18027244E-03 -0.38889425E-05
 -0.34860593E-03  0.17613342E-04  0.76361604E-04 -0.30882960E-03  0.25537445E-03

 -0.46600799E-06 -0.18121319E-05 -0.69350024E-06 -0.12216839E-05  0.31028806E-05
  0.14761966E-05 -0.10159141E-05 -0.13959474E-05  0.43581014E-06  0.13652270E-05
 -0.13070122E-05 -0.37746017E-06  0.16874969E-05 -0.46434175E-06  0.51543008E-06
 -0.64951329E-06  0.95606585E-06 -0.17134667E-06  0.19967908E-04 -0.12608720E-04
  0.59661383E-05  0.98452139E-04 -0.12947576E-04 -0.15373141E-04  0.49328089E-04
  0.30356009E-04  0.13925002E-04 -0.31186540E-07  0.14726728E-05 -0.14020666E-05
  0.50302205E-06  0.15761680E-05  0.57445006E-06  0.79333274E-06 -0.24359842E-06
 -0.49185805E-07 -0.28313273E-05  0.82264358E-05  0.33112902E-06  0.20649292E-04
 -0.75654356E-05  0.17849826E-04  0.12706810E-05  0.19502561E-04  0.10842416E-04
 -0.72440978E-06 -0.24644429E-05  0.10670603E-05 -0.20290857E-05 -0.12833939E-05
  0.42827549E-07  0.42311806E-06 -0.20332502E-05  0.24231234E-06  0.30988499E-06
  0.19470847E-05 -0.26026402E-06 -0.13763229E-05  0.28473979E-05  0.34062359E-06
  0.11607581E-05  0.49488248E-06  0.30862200E-06  0.60508043E-08  0.25622487E-05
  0.72500911E-06 -0.31917709E-05  0.10171516E-05  0.14375663E-05  0.29495342E-06
  0.56313122E-08  0.45528346E-06 -0.11427587E-06 -0.17390934E-05 -0.81082462E-06
  0.14262533E-05  0.44518156E-06 -0.73085587E-06 -0.46923895E-07  0.82715504E-06
 -0.90772153E-06  0.58113521E-06  0.41776626E-06  0.10349189E-05  0.28546156E-05
  0.26289467E-07 -0.91918689E-06  0.25841857E-06  0.13187569E-05 -0.22218110E-06
 -0.13338287E-04 -0.89521734E-06  0.20855649E-04  0.12472382E-04 -0.12961467E-04
 -0.14333816E-04 -0.84952099E-05 -0.87922865E-06 -0.30255616E-05 -0.14280067E-05
 -0.25742240E-05  0.93900664E-06 -0.26731430E-05  0.60015391E-06 -0.20516596E-06
 -0.13409806E-06 -0.15444313E-05  0.16606094E-05 -0.54166780E-05 -0.16750106E-04
 -0.15521156E-04  0.39216418E-06  0.11734001E-04 -0.37639513E-04  0.10559644E-04
 -0.68823042E-05 -0.20107570E-04  0.14045290E-05 -0.13289104E-05 -0.10836454E-05
 -0.47439783E-06 -0.37655723E-06  0.50201240E-06 -0.43789042E-07  0.10084985E-05
 -0.48414796E-06 -0.17898971E-04  0.27928995E-04 -0.93162432E-05  0.34155977E-04
 -0.30976255E-04 -0.81815838E-05 -0.12436255E-04 -0.19819241E-05  0.48821558E-05
 -0.80601688E-06 -0.32841310E-06 -0.42198945E-06 -0.13994692E-05 -0.12475738E-05
  0.19570416E-05 -0.18436300E-06 -0.56354149E-06  0.42933500E-06 -0.12109170E-04
 -0.31847054E-06  0.13326489E-04  0.14229399E-04 -0.73739780E-06  0.77003031E-06
 -0.66222714E-05 -0.21046006E-05 -0.57901725E-05 -0.51759132E-06  0.20204867E-06
  0.85852402E-06  0.29744074E-06  0.67656009E-06 -0.37897856E-06  0.47336401E-06
 -0.34795970E-06  0.38989315E-07 -0.22960656E-06  0.18818724E-06  0.71922187E-06
  0.22210369E-06  0.12230513E-06  0.71790030E-06  0.73810873E-06  0.66673820E-06
  0.14864392E-05  0.27019026E-07 -0.12464233E-05 -0.98950780E-06 -0.39430211E-06
  0.99302604E-06 -0.16048693E-06 -0.57587194E-06 -0.67783052E-07  0.13409469E-06
  0.16707812E-05  0.99043645E-06 -0.20641603E-05 -0.14107960E-05 -0.17377899E-05
  0.21753501E-05  0.10817389E-05 -0.43921452E-06 -0.66466049E-06  0.14382604E-05
  0.48777093E-05 -0.79765296E-06  0.37774100E-05 -0.46776999E-05 -0.46225358E-06
 -0.12099756E-05  0.12305934E-05  0.54913049E-05 -0.61597335E-08  0.36821864E-04
 -0.10734649E-04 -0.58763643E-05 -0.15480664E-04  0.22885777E-04  0.32552862E-05
 -0.59403851E-05 -0.31284519E-05  0.15992899E-04  0.18324691E-05  0.18072055E-05
  0.15021578E-05 -0.33072563E-06 -0.26055068E-07  0.12517835E-05 -0.33370164E-06
 -0.17648937E-05  0.13871548E-04  0.20919771E-04  0.10741645E-04 -0.27027480E-04
  0.14091172E-04  0.21204995E-05 -0.88532700E-05  0.25053264E-05  0.27430600E-04

  0.13682348E-05 -0.23178822E-05  0.96563901E-06 -0.10506977E-05  0.29073639E-06
  0.87375264E-06  0.11813091E-05 -0.11492018E-05  0.12278249E-05 -0.57357601E-06
  0.81540848E-06  0.22620839E-05  0.11774186E-05 -0.40876066E-05  0.15153326E-05
 -0.14891955E-05 -0.13531944E-05  0.80130704E-06  0.31613016E-04 -0.51181951E-05
 -0.13367825E-04  0.37805363E-06 -0.57173933E-04  0.12787209E-04  0.46884582E-05
 -0.55913587E-05  0.61464946E-05 -0.51707567E-06 -0.26204948E-05 -0.29501612E-05
  0.39770972E-06 -0.50491144E-06  0.81654903E-06  0.57711026E-06  0.63979035E-06
 -0.14860497E-06 -0.79810485E-05 -0.32509769E-05 -0.68969309E-05  0.37885816E-05
 -0.15174218E-05  0.29035954E-05 -0.88482095E-05  0.17275278E-04  0.43674006E-05
 -0.69725859E-06  0.14471613E-05 -0.14523216E-06 -0.57939946E-07 -0.28488467E-06
 -0.70462204E-06 -0.84840170E-06 -0.40633196E-06  0.12875568E-05  0.99911026E-06
 -0.41478624E-06 -0.81283511E-06 -0.11852993E-07  0.27478893E-05 -0.77795400E-06
  0.90301669E-06  0.81911247E-07  0.39316702E-06  0.64321792E-06  0.10177046E-05
  0.17704668E-05 -0.77764264E-06  0.19270465E-05 -0.90554271E-06 -0.56741223E-06
 -0.42362822E-06 -0.74128206E-06 -0.26249991E-06  0.39753296E-06  0.51193999E-07
  0.75385521E-06 -0.31336661E-05  0.67265908E-06 -0.29578451E-06  0.27699512E-06
 -0.10377507E-06 -0.58629707E-06 -0.26284712E-05  0.74062489E-06 -0.85694598E-06
  0.23152136E-05  0.99498145E-07  0.83033660E-06  0.26764886E-06  0.37359301E-08
 -0.98692483E-05  0.31727216E-04  0.69229910E-05 -0.95928477E-05  0.10147812E-04
  0.11805223E-04 -0.48300151E-05  0.40926245E-05 -0.60323075E-06 -0.34298881E-06
 -0.12526213E-05 -0.90403161E-06 -0.70838606E-07 -0.18774036E-05  0.50707763E-06
 -0.20357509E-05 -0.10906887E-06 -0.23429403E-06  0.14601152E-04 -0.18320258E-04
 -0.27539800E-04 -0.83319228E-05  0.46083949E-05  0.30306404E-04 -0.25818634E-04
 -0.12349455E-04 -0.26193215E-04 -0.60317396E-06 -0.11147222E-05  0.72751889E-06
 -0.55155971E-06  0.22871832E-06 -0.43684227E-06  0.11990435E-07 -0.88281187E-06
 -0.22046680E-05  0.23101839E-04 -0.25961368E-04 -0.27931606E-04  0.14177042E-04
 -0.42211273E-04  0.71625015E-05  0.22647786E-05 -0.17343015E-04  0.12120572E-05
 -0.63083397E-06 -0.70000787E-06  0.33577559E-07  0.72249334E-07 -0.43190257E-06
  0.95050631E-06 -0.10746470E-05  0.28249905E-06  0.14216767E-05 -0.91621882E-06
 -0.98497423E-05 -0.99586813E-05 -0.40360076E-07  0.83682249E-05 -0.59281005E-05
 -0.58423148E-05 -0.94542996E-06  0.77828336E-05  0.97674432E-06 -0.12329522E-05
  0.61232027E-06 -0.26721901E-06  0.16285928E-05 -0.17846923E-05  0.15228937E-05
  0.33786241E-06 -0.88188105E-06  0.36884647E-06 -0.19739293E-05 -0.92127824E-06
 -0.30756007E-06  0.88605109E-06 -0.19774460E-06  0.16496678E-06  0.12166239E-05
 -0.30704008E-07 -0.58125029E-06 -0.14289515E-05 -0.12937707E-05  0.19634816E-06
 -0.12571638E-05  0.70331561E-06 -0.60008515E-06 -0.15259306E-06 -0.93868217E-06
  0.10612179E-05  0.41433517E-05 -0.14687499E-05  0.32687713E-07  0.24802098E-05
 -0.10591765E-05 -0.72857004E-06 -0.93416751E-07  0.13011024E-06  0.31450678E-05
  0.38396911E-05 -0.17337131E-05 -0.13673133E-05 -0.16396338E-05 -0.17267256E-05
 -0.53435100E-05  0.36764266E-05  0.35905912E-05  0.50896747E-06  0.13739033E-04
 -0.73439494E-05  0.10807838E-04 -0.79863898E-05  0.35298053E-04 -0.28111525E-04
 -0.43684588E-04 -0.35298621E-06  0.18324691E-05  0.23892447E-04  0.99114445E-06
  0.10506935E-05 -0.32969694E-05  0.29143931E-06  0.74444299E-06 -0.11409780E-05
 -0.41410827E-05  0.18444752E-04  0.22076999E-04  0.32171393E-04 -0.14100188E-03
  0.22340481E-04  0.61892113E-04  0.64594744E-05  0.28851031E-04  0.77358716E-04

 -0.32801401E-06 -0.16047332E-05  0.16098882E-07 -0.18344433E-05  0.12155484E-05
  0.13278854E-05  0.51983748E-07  0.67854677E-06 -0.55697074E-06 -0.40472521E-06
  0.38259269E-07  0.46071632E-06  0.13635389E-05 -0.29682207E-05  0.15231052E-05
 -0.58101101E-06  0.14024095E-05 -0.34421538E-06  0.15991057E-04 -0.67925016E-05
  0.41514442E-05  0.46047663E-04 -0.28366137E-04  0.42007570E-04  0.17841608E-04
  0.18230150E-04  0.12858703E-04 -0.29077990E-06 -0.25296406E-05  0.33249346E-06
  0.10217279E-05  0.97335451E-06 -0.31419560E-05  0.68379819E-06  0.59190217E-06
  0.14662498E-05 -0.26851649E-05  0.42816538E-06 -0.45443198E-05  0.22090593E-04
 -0.22588247E-04 -0.53095633E-05  0.12361472E-04  0.18195684E-04  0.42243537E-05
  0.25377075E-06 -0.15188704E-05 -0.56341709E-06 -0.95142428E-06 -0.14552054E-05
 -0.20742195E-05 -0.57988832E-06 -0.16409939E-05 -0.11785917E-05 -0.82983444E-06
  0.21873663E-05 -0.76877009E-06 -0.36356774E-06  0.74259169E-06  0.91272135E-06
  0.45344117E-06 -0.50506013E-06 -0.34354222E-06  0.97938272E-06  0.59289737E-06
 -0.84032803E-06 -0.73823499E-06  0.12506804E-05  0.33274411E-06  0.24690174E-06
  0.82224545E-06  0.13759585E-06 -0.97898972E-06  0.31505462E-06  0.96668702E-06
  0.43766209E-06  0.58969655E-06  0.10727062E-05 -0.44684876E-06  0.23970675E-07
  0.18848426E-06 -0.11780619E-06  0.24682193E-06 -0.10353438E-05 -0.51856382E-06
 -0.11981064E-05  0.30864659E-05 -0.27017311E-06 -0.33049409E-06  0.25348987E-06
  0.12444188E-04  0.24165626E-04 -0.11869291E-04  0.13883685E-04  0.23694865E-05
 -0.39630123E-04 -0.10171338E-05  0.66163608E-05 -0.21416135E-04  0.20178177E-05
 -0.44343592E-06 -0.18351263E-05  0.58517457E-06  0.40415917E-06 -0.41971182E-05
  0.17166833E-06 -0.29806322E-06  0.25950025E-06  0.78072601E-06  0.18668949E-05
  0.24371166E-05 -0.17521418E-04  0.15786959E-04 -0.36824806E-05 -0.83679060E-05
 -0.40256481E-04 -0.18446197E-04  0.38745328E-06  0.17740568E-06  0.10616516E-05
  0.10236791E-06 -0.67327298E-07  0.23732272E-05  0.64848131E-07 -0.30169514E-06
 -0.17713386E-05 -0.54637509E-05  0.22144893E-04 -0.38951846E-05  0.12137471E-04
 -0.76975673E-05 -0.25091715E-05 -0.52031340E-06 -0.11050661E-04  0.15631017E-04
 -0.29146427E-06 -0.39573555E-06 -0.23029382E-05  0.62013937E-06 -0.43556216E-06
  0.90666598E-06  0.35878401E-06 -0.40288394E-06  0.11540700E-05  0.58092562E-05
  0.17529653E-05  0.93860601E-05 -0.88999335E-05 -0.27792259E-05  0.33091817E-04
 -0.10040880E-04 -0.35720714E-05 -0.82922760E-05  0.43819396E-06  0.97677909E-06
  0.48049131E-06 -0.83937034E-06  0.35164430E-06  0.82788660E-06 -0.68189518E-07
 -0.21461531E-06  0.59822905E-06 -0.21921728E-07  0.30220189E-06 -0.11109094E-05
 -0.45536283E-06  0.82539343E-06  0.19432958E-05  0.96882389E-06  0.18088694E-07
  0.51577114E-06 -0.76654764E-06 -0.63132562E-06  0.24277030E-06  0.10647859E-05
 -0.97672081E-06 -0.51449509E-06  0.47435716E-06 -0.65127396E-06 -0.90557303E-06
 -0.14825631E-05  0.78981921E-06  0.14851196E-05  0.42769618E-06 -0.37189952E-06
 -0.12250317E-05 -0.90520460E-07  0.96571808E-06 -0.28625537E-06 -0.17110065E-05
 -0.25333839E-05 -0.59285396E-06 -0.67295699E-06  0.30124950E-05 -0.19455092E-06
  0.50966006E-05 -0.47641944E-07 -0.14339401E-05 -0.22905471E-04  0.82947741E-05
  0.28017701E-04 -0.28841468E-05  0.25919838E-04 -0.39721166E-04 -0.96077453E-05
 -0.17191625E-04  0.37858736E-04  0.18072055E-05  0.99114445E-06  0.21431109E-04
  0.20040081E-05 -0.11275785E-05  0.42003456E-06 -0.10655398E-05  0.83895669E-06
  0.11067060E-05  0.13502216E-04  0.31976821E-04 -0.59357546E-06 -0.83986735E-04
  0.35120454E-04  0.13134913E-04  0.16831319E-04  0.23752229E-04  0.28873486E-04

 -0.18274353E-06 -0.29424000E-06 -0.75551817E-06 -0.76652142E-06  0.13420880E-05
  0.10401020E-05 -0.75422623E-06  0.84922592E-06  0.92994525E-06  0.15799905E-05
  0.15527984E-05  0.27694426E-05 -0.82968261E-06  0.13277270E-05 -0.38739020E-06
 -0.14778482E-06  0.72587837E-06 -0.40789852E-06 -0.79578922E-05 -0.49268915E-05
  0.11075861E-04  0.81580723E-05 -0.10514182E-04  0.75406469E-05 -0.71124536E-05
  0.87523299E-05 -0.17328256E-04 -0.10138178E-05  0.68150268E-06 -0.57436663E-06
  0.21874233E-05 -0.60746712E-06  0.10216888E-05  0.49360609E-06 -0.50922159E-06
 -0.27360301E-06 -0.17526068E-04  0.47671215E-05 -0.78914516E-05  0.17908324E-04
 -0.28516990E-04 -0.37779000E-05 -0.13319423E-04  0.98317378E-05 -0.21195198E-04
  0.81541907E-06 -0.73233232E-06  0.86326029E-06 -0.28525018E-05  0.25046378E-05
 -0.15108884E-06  0.88713091E-07 -0.10994768E-05 -0.17333867E-06  0.14549297E-05
 -0.71816208E-06  0.79449307E-06 -0.10433095E-05  0.28255395E-05  0.59299990E-06
  0.20405203E-05  0.13572165E-05  0.58499887E-06  0.42017242E-06  0.68354157E-06
  0.95129900E-06 -0.55375990E-05  0.22212035E-05  0.29961468E-05  0.23442515E-06
 -0.18294731E-05  0.34672434E-08  0.45739184E-06  0.10996884E-08  0.65682240E-06
  0.12191945E-05 -0.26750515E-05  0.93238919E-06 -0.62460187E-06 -0.85846377E-07
  0.24813517E-06  0.10487620E-05  0.49235848E-06 -0.58973427E-06 -0.71664747E-06
  0.11292371E-05 -0.68013936E-06  0.90575721E-06  0.79778838E-06  0.70118915E-06
  0.17480825E-05  0.10864567E-04 -0.14170288E-04  0.10527012E-04  0.83857236E-05
  0.55326225E-05  0.97533713E-05  0.48326537E-05  0.18453627E-05  0.26687326E-06
 -0.69433380E-06 -0.99555935E-06 -0.25391752E-05  0.13298776E-05  0.12344957E-05
 -0.73146420E-06  0.64378212E-06 -0.33125728E-06 -0.12701098E-05 -0.23348619E-04
 -0.14105268E-04 -0.76832263E-04  0.22542491E-04  0.15637049E-04 -0.23104521E-06
  0.84022245E-05 -0.28184040E-05 -0.79370753E-06  0.57813652E-06 -0.66189251E-06
  0.29131934E-05 -0.11608539E-05  0.21928289E-06  0.43941763E-06  0.18521330E-06
 -0.86546791E-06  0.13979438E-04  0.54355547E-05 -0.84322689E-05  0.39427733E-04
 -0.46037298E-04 -0.24949181E-04  0.14424569E-04  0.52741279E-05  0.11007058E-05
  0.17904876E-05  0.68164608E-06  0.60756526E-06 -0.12987805E-05 -0.10116349E-05
  0.18521902E-05  0.29682169E-06  0.46093087E-06 -0.44084046E-06  0.94494321E-06
  0.35687160E-05 -0.10624555E-04  0.40627397E-04 -0.15766304E-04 -0.16670708E-04
 -0.30755832E-05  0.64845393E-05 -0.71807612E-05 -0.43519720E-06 -0.13122447E-05
 -0.91126953E-06  0.15083594E-05  0.47450420E-06  0.53282558E-06  0.80823901E-06
  0.71740964E-06 -0.64127430E-06  0.58496507E-06 -0.25527285E-05  0.15614325E-05
 -0.26864918E-05  0.16683904E-05  0.32934351E-06 -0.33157672E-07 -0.47279130E-06
  0.48399702E-06 -0.31490833E-06 -0.15483158E-06 -0.11070518E-06 -0.58362098E-06
  0.14730900E-05  0.63239361E-06  0.25824457E-06 -0.14655252E-05  0.10628537E-05
  0.20992532E-05 -0.59886182E-06  0.66759629E-06  0.14231637E-05 -0.27160666E-06
 -0.10238664E-06 -0.34468177E-06 -0.12218890E-06 -0.84452042E-06 -0.29613679E-05
 -0.13603848E-05  0.10192126E-05  0.10483910E-06  0.20446288E-05 -0.21217230E-05
  0.47350353E-05 -0.30187510E-05 -0.10040961E-05 -0.17662660E-05 -0.11532976E-04
  0.19066854E-04 -0.59372546E-04  0.48882956E-04 -0.48470261E-04  0.33478473E-04
  0.39587551E-04 -0.16034690E-04  0.15021578E-05  0.10506935E-05  0.20040081E-05
  0.28174621E-04 -0.12235942E-04 -0.85099362E-05 -0.50288032E-06  0.28520595E-05
  0.34395977E-06  0.25212575E-04  0.31949571E-04  0.44989205E-04  0.12821147E-04
  0.83232350E-05 -0.46015196E-05  0.26024162E-04  0.11691202E-04  0.29398975E-04

  0.98661957E-07  0.24783876E-05 -0.34258265E-06  0.11994154E-05 -0.36676449E-05
  0.15662131E-05  0.71786967E-07 -0.79786391E-06 -0.12387234E-05 -0.90653629E-06
 -0.64451627E-06 -0.29011104E-05  0.19530360E-05 -0.61407143E-05  0.16379913E-05
  0.25616346E-06 -0.55352265E-06 -0.11140478E-05 -0.12884314E-04 -0.14736927E-04
 -0.40471100E-05  0.52786565E-04 -0.48649625E-04 -0.86839607E-05 -0.66368311E-04
  0.17810791E-05  0.12296191E-04  0.54641891E-06  0.95686432E-07  0.93000890E-06
 -0.22927663E-05  0.34125870E-05  0.14740491E-05  0.25830899E-05  0.15161705E-06
  0.44080418E-06  0.68185580E-05 -0.21386175E-05 -0.11581963E-04  0.85163840E-05
 -0.21154921E-04 -0.59769497E-05 -0.49516872E-05  0.24182067E-05  0.15059651E-04
  0.10474604E-05 -0.13899061E-05 -0.68469040E-06  0.34172686E-05 -0.36507497E-05
  0.11474146E-05 -0.19419199E-05  0.14150069E-05 -0.55367611E-06  0.24181947E-06
 -0.14635970E-05 -0.57348407E-06  0.25715760E-05 -0.65481135E-05  0.19358055E-05
 -0.59691177E-06  0.27770973E-06 -0.45278827E-06  0.10076336E-05 -0.12201574E-05
 -0.92684118E-06  0.29837283E-05 -0.17449132E-06  0.18441896E-05  0.23089456E-05
  0.50682356E-06  0.99778768E-06 -0.41630133E-06  0.12952868E-05 -0.10035148E-05
 -0.45919883E-06  0.23745785E-05 -0.74898767E-06  0.43844317E-06  0.30752560E-06
 -0.34342701E-06  0.81111051E-06  0.28447241E-05  0.65717541E-06  0.16073976E-05
 -0.22675448E-05  0.50261460E-06 -0.91135103E-06 -0.49762186E-06 -0.84302758E-06
  0.20169893E-05  0.83651524E-07 -0.15624585E-04  0.16053212E-04 -0.52404724E-04
 -0.33694750E-04  0.45041987E-05  0.32123450E-05 -0.88502244E-05  0.23517869E-05
  0.15000808E-05 -0.73972554E-06  0.20384189E-05 -0.51645709E-06 -0.13512054E-05
  0.21793848E-05 -0.24319947E-05  0.35490375E-06 -0.39365044E-04  0.21492331E-05
  0.59895259E-05  0.55399231E-04 -0.13518117E-04  0.18174177E-05 -0.34737947E-04
 -0.26132819E-04  0.73000587E-05  0.41206639E-06 -0.56323140E-05  0.74719018E-06
 -0.14568947E-05  0.57220376E-05 -0.66133845E-06  0.12427631E-05  0.38304235E-06
  0.37820243E-05 -0.27801093E-04 -0.58152095E-05  0.42267346E-04  0.31550225E-04
  0.27723736E-04  0.13503689E-04 -0.49096362E-04  0.97000396E-05  0.44887376E-05
 -0.15920633E-05 -0.13669069E-06 -0.71182426E-06  0.65803018E-06 -0.12393440E-05
  0.70095941E-06  0.14689661E-05 -0.20178428E-05 -0.42031599E-06 -0.21401042E-05
 -0.85440463E-05  0.17552056E-04 -0.16235247E-04  0.38702242E-04  0.68920347E-05
  0.48350779E-05 -0.45927909E-05 -0.73657225E-05 -0.24817650E-06  0.18171239E-05
  0.58305109E-07  0.31005966E-06 -0.36303099E-05  0.28296054E-05  0.20280715E-06
  0.74901324E-07 -0.52710894E-06 -0.70246163E-06  0.33895769E-05 -0.51799146E-06
  0.19596681E-05 -0.92303783E-06 -0.56792515E-06 -0.48371903E-07  0.96197409E-06
 -0.17444903E-05  0.72263959E-06 -0.91218767E-07  0.81240019E-06  0.12794413E-05
 -0.33981479E-05  0.29609527E-06  0.58778698E-06 -0.52074331E-07 -0.15492501E-06
 -0.40136905E-06 -0.26059420E-05  0.52304917E-07  0.28708202E-06  0.68701233E-05
 -0.11515100E-06  0.11511756E-05  0.75847346E-06 -0.92501673E-06  0.32647127E-05
  0.40801226E-05 -0.10193942E-05 -0.78082041E-06  0.33105306E-05 -0.21954061E-06
 -0.12850650E-05  0.50217909E-05  0.62240543E-05  0.17634355E-04  0.36370873E-04
 -0.20359713E-04  0.40518259E-04 -0.39994614E-04  0.14833720E-03  0.45557198E-06
 -0.32970953E-04 -0.82230072E-05 -0.33072563E-06 -0.32969694E-05 -0.11275785E-05
 -0.12235942E-04  0.42692917E-04 -0.64901250E-05  0.23978812E-05 -0.12646277E-05
  0.10882940E-05 -0.32029701E-04 -0.35121955E-04 -0.60132996E-04  0.11689274E-03
  0.18648969E-04 -0.93018435E-04 -0.28187211E-04 -0.23725777E-04 -0.67276331E-04

 -0.92602470E-06 -0.14409635E-05 -0.11681640E-06  0.21860812E-05  0.69021435E-06
 -0.26824948E-05  0.97047608E-06  0.26328666E-06 -0.15914134E-05 -0.23322079E-06
  0.62763450E-06 -0.11747708E-05  0.79191895E-06  0.14452720E-05 -0.85224004E-06
 -0.92475339E-06 -0.80348811E-06  0.15060411E-05  0.44210479E-04  0.24589294E-04
 -0.37764709E-05  0.27115357E-04  0.38873400E-05  0.13391253E-04  0.17235115E-04
  0.64857701E-05  0.23574596E-04  0.69105652E-06 -0.76546892E-06 -0.77654550E-06
  0.18077121E-05 -0.32742592E-06 -0.52844132E-05 -0.14793967E-05 -0.24461856E-05
 -0.22117512E-05  0.16599480E-04  0.88106283E-05  0.20848286E-04  0.16011342E-04
  0.11877550E-04  0.12114971E-04  0.17484821E-04  0.15384784E-04  0.37376272E-04
 -0.16430429E-05  0.16110568E-05 -0.34034261E-07 -0.37173208E-06 -0.31422320E-06
  0.65677222E-06  0.57447037E-06 -0.22260506E-05  0.89063104E-06 -0.10544327E-05
  0.14399185E-05 -0.85567792E-06  0.16522447E-05  0.23341182E-05 -0.39126854E-05
 -0.54735007E-06 -0.13048741E-05 -0.31446726E-06 -0.13303577E-05  0.17667884E-05
 -0.13391582E-05  0.31711397E-05  0.29733484E-05 -0.61780017E-05 -0.85166068E-06
  0.22562819E-06 -0.16086780E-06 -0.69506681E-06 -0.15004857E-06  0.65444610E-06
  0.65691970E-06  0.68646887E-06  0.18784932E-05  0.32231793E-06  0.36984674E-06
 -0.52574149E-06 -0.23388752E-05 -0.29366449E-06 -0.42430436E-05 -0.11193938E-05
 -0.48604389E-06  0.52321852E-05 -0.14763080E-06  0.24945958E-06  0.96972289E-06
  0.14169778E-04  0.60454801E-05  0.21840233E-04 -0.14833865E-04  0.23487952E-04
  0.32060827E-04 -0.19169841E-04  0.17782208E-04 -0.40759704E-05 -0.74859325E-06
 -0.16717822E-05  0.19431506E-05  0.74714105E-06  0.23492759E-05 -0.15988123E-05
 -0.38290713E-06  0.69412487E-06 -0.10351897E-05  0.30992020E-04  0.56833281E-05
 -0.25637656E-04  0.35448491E-04  0.59704920E-05 -0.28334520E-04  0.39377871E-05
 -0.14253026E-04 -0.92840293E-05 -0.60607305E-06 -0.22644193E-06  0.43375688E-07
 -0.61595407E-06  0.10606120E-05  0.26449155E-06  0.23949841E-06  0.32080110E-06
 -0.35468496E-06 -0.10267574E-05 -0.11196306E-04 -0.66951894E-05 -0.68624962E-05
  0.17648144E-06  0.35472640E-04 -0.50664428E-05 -0.51007759E-05 -0.41033933E-05
 -0.74923335E-06  0.41119191E-06  0.12440316E-05  0.64999919E-06  0.15395571E-05
 -0.51118342E-07 -0.66698502E-06  0.56296213E-06 -0.15188581E-06 -0.33886095E-05
 -0.90105941E-05  0.23166575E-04 -0.69145276E-05  0.76980490E-05 -0.16061980E-04
 -0.64338884E-05  0.35991884E-05  0.14989490E-04 -0.27386162E-06  0.12208403E-05
  0.85449258E-06  0.50161348E-06  0.39296820E-06 -0.74875500E-07 -0.53113942E-06
  0.25590679E-06  0.89711875E-06 -0.15913112E-06  0.20538629E-06  0.20860759E-06
  0.44821251E-06  0.41862607E-06  0.31332571E-05 -0.73727517E-06  0.20132348E-07
 -0.62616400E-06 -0.73988807E-07 -0.41171722E-06 -0.34810922E-07  0.70839924E-06
  0.50594760E-06 -0.37303077E-06 -0.35436021E-06  0.10616739E-05  0.49646875E-06
  0.81484654E-07  0.28068290E-05 -0.37905910E-06 -0.16828684E-06  0.79699929E-07
  0.88716162E-06  0.21017932E-06 -0.36709078E-06  0.18492500E-05  0.36468347E-06
 -0.79500976E-06  0.56797623E-06 -0.83464603E-06 -0.17862630E-05  0.38395615E-05
 -0.34573245E-05 -0.16831757E-05  0.31428553E-07  0.83256479E-05 -0.15458674E-05
 -0.97163272E-05  0.25627629E-05 -0.24020311E-04  0.10345281E-03 -0.21329233E-04
 -0.20428091E-04  0.28709942E-04 -0.26055068E-07  0.29143931E-06  0.42003456E-06
 -0.85099362E-05 -0.64901250E-05  0.28414461E-04  0.14267727E-06  0.20861635E-05
  0.18176981E-05 -0.82631285E-05 -0.24661921E-04 -0.38941657E-05  0.29231818E-05
 -0.43142648E-04  0.74095096E-04 -0.96014990E-05  0.13107135E-04 -0.10002494E-04

 -0.36976194E-06 -0.13243423E-05  0.51770994E-06 -0.47490532E-07  0.31460908E-05
 -0.67755226E-06  0.10098095E-05 -0.38913866E-06 -0.15672329E-06 -0.11188335E-05
  0.11351568E-05  0.10259726E-06  0.17908076E-06 -0.12898516E-06 -0.95436945E-06
 -0.11728866E-05  0.13875741E-06  0.20492890E-05  0.35695814E-04  0.20178805E-04
  0.11972142E-05  0.55057635E-04 -0.30569280E-04 -0.91432715E-05 -0.26573368E-04
 -0.15152012E-04 -0.23033445E-05  0.51625739E-06  0.11131684E-05  0.12723975E-06
 -0.13571713E-05  0.40553077E-06  0.18777429E-05 -0.17108983E-05 -0.10939394E-05
 -0.15346929E-05 -0.14224708E-05 -0.30010008E-06 -0.12519640E-04  0.47917939E-05
 -0.44870390E-05  0.94795982E-05  0.16367166E-04  0.35748703E-05  0.25178351E-04
 -0.56318636E-06  0.31528455E-05  0.28604018E-06  0.18515129E-06 -0.29974045E-05
  0.78439491E-06 -0.95376847E-06  0.80276818E-06  0.10154799E-05 -0.79045664E-06
 -0.19257391E-05  0.14299706E-05  0.21149870E-05 -0.70224645E-06 -0.28259971E-07
  0.69529239E-06  0.36771185E-06 -0.21985709E-06 -0.93004471E-06  0.20224740E-05
 -0.16593533E-06 -0.20790927E-06  0.34128614E-05  0.44770058E-07  0.31953669E-06
  0.11167463E-05  0.48077697E-06 -0.86378309E-06 -0.75233183E-06 -0.34939302E-06
 -0.23352536E-07 -0.27041618E-06 -0.95948653E-06 -0.60358183E-06 -0.19796807E-06
 -0.12122866E-05 -0.54728205E-06 -0.10437209E-05 -0.10288517E-06 -0.11985519E-05
  0.82014538E-06  0.53670942E-06 -0.81207157E-06  0.17891622E-06  0.52445278E-06
  0.60206173E-05 -0.67556653E-05 -0.57544181E-06  0.19353452E-05 -0.14430608E-04
 -0.10197558E-04 -0.46897811E-05 -0.12235800E-05  0.66549340E-05 -0.52743095E-06
  0.35881169E-05  0.14296026E-05  0.17227842E-05  0.16371127E-05 -0.87230010E-06
 -0.10659667E-05 -0.17852743E-06 -0.75427842E-06  0.86065230E-05  0.16049117E-04
  0.11390328E-04 -0.21192683E-04  0.62274357E-05  0.25041326E-04  0.12179657E-04
  0.11730001E-04  0.81627031E-05  0.14059359E-05 -0.10499824E-05  0.37506176E-07
  0.91445622E-06 -0.15968890E-05  0.92480100E-06  0.12657228E-05  0.12740380E-05
  0.64124849E-06  0.56463366E-05 -0.34040986E-05  0.20868303E-04 -0.23709020E-04
  0.28404209E-04  0.77928913E-05 -0.11437057E-04 -0.10961102E-05  0.19998922E-05
  0.26594226E-06  0.40447021E-06  0.36790338E-06  0.41636428E-06 -0.23233608E-05
  0.89250903E-06 -0.47194595E-06 -0.65537659E-06 -0.13677440E-05 -0.37326984E-06
 -0.59068622E-05  0.99572943E-05  0.32309664E-05 -0.85511642E-05 -0.47549523E-05
  0.46343944E-05 -0.61763837E-05  0.15964597E-04 -0.13489500E-06 -0.14814957E-05
 -0.15877224E-06  0.18997802E-06 -0.18314933E-05  0.10611791E-05 -0.68861059E-06
 -0.51718615E-06 -0.18887390E-05 -0.80914139E-07 -0.13812487E-05 -0.13199118E-06
 -0.57355107E-06 -0.39588901E-06  0.54147554E-06  0.10565850E-05  0.31752789E-06
 -0.73626062E-06 -0.79211560E-07  0.77330922E-06  0.15158507E-06 -0.39153270E-06
  0.81711054E-06 -0.19567586E-06 -0.47460768E-06 -0.49579438E-06  0.40605233E-06
 -0.44555706E-06  0.17598308E-05 -0.72025601E-06  0.13892017E-05  0.38401521E-05
 -0.17709994E-05  0.20636533E-05  0.50320938E-07  0.87066719E-06  0.84427276E-06
  0.76938224E-05 -0.12023354E-05  0.16314741E-05 -0.11505837E-05 -0.29656133E-05
 -0.12276240E-07  0.38337095E-06  0.86434594E-05  0.13210163E-04  0.65611819E-04
  0.82799237E-05  0.25205808E-04 -0.39411265E-04  0.16260649E-03 -0.14576517E-04
 -0.18233780E-04  0.18998752E-04  0.12517835E-05  0.74444299E-06 -0.10655398E-05
 -0.50288032E-06  0.23978812E-05  0.14267727E-06  0.18137216E-04 -0.46938925E-06
  0.24040095E-05  0.27919980E-04  0.74596983E-05 -0.16990114E-04  0.35716112E-04
  0.11763346E-04 -0.98592979E-05  0.59076372E-05  0.23561740E-04 -0.20706423E-04

 -0.16549764E-06 -0.58638454E-06 -0.49332496E-06  0.35875314E-06  0.13048989E-05
  0.57363526E-06 -0.46068860E-07 -0.41195327E-06  0.95076168E-06  0.41360029E-06
 -0.42158005E-06  0.17106500E-05  0.67754226E-06 -0.20408667E-06  0.21580467E-06
  0.35365039E-06 -0.11998854E-05  0.87033884E-07 -0.59178585E-05 -0.13913286E-05
  0.11148227E-04  0.53485360E-04 -0.19417907E-04  0.51475974E-05  0.81862467E-05
  0.45690669E-05  0.50027228E-05 -0.48486932E-06 -0.13524566E-06  0.42875393E-06
  0.91062738E-06  0.32330297E-06 -0.37529930E-05 -0.38766997E-06 -0.49218301E-07
 -0.46317942E-06  0.13038908E-05 -0.27140685E-06  0.41626150E-05  0.87591418E-05
  0.47101490E-05 -0.88545376E-05  0.44424453E-06 -0.27972112E-05 -0.86093421E-05
  0.52150414E-06 -0.12221456E-05 -0.88372181E-06 -0.16504432E-05  0.34666957E-06
 -0.10778064E-05  0.24733829E-06 -0.15581330E-05  0.31777672E-06 -0.67093920E-06
 -0.43310564E-06 -0.19565303E-06  0.10593637E-05 -0.11579031E-07 -0.10557925E-05
 -0.89992918E-07 -0.81901271E-06 -0.35459576E-07  0.23777171E-06  0.73852678E-06
 -0.72132113E-06 -0.20678291E-05  0.77965687E-06  0.25687324E-06 -0.52524937E-07
 -0.17360016E-05 -0.10331008E-06 -0.90433793E-07  0.70129671E-06 -0.74566717E-06
  0.33532092E-07 -0.86451105E-07  0.11341688E-05 -0.67727825E-07  0.80508944E-06
 -0.17683557E-06 -0.78215341E-06  0.73279166E-06 -0.10931044E-05  0.39824059E-06
 -0.95072423E-06  0.59531413E-06  0.30931301E-06 -0.17331966E-07  0.50117893E-06
  0.55540899E-05 -0.85832149E-05  0.95850565E-05 -0.71232275E-06  0.41127202E-05
  0.10581145E-04 -0.20177857E-05  0.11741706E-04 -0.75165278E-06 -0.79658471E-06
 -0.28780053E-06 -0.54882631E-06  0.18254855E-07  0.25919678E-06  0.52494718E-06
 -0.18582964E-06 -0.68928298E-06 -0.94169633E-06 -0.20900088E-05 -0.28277749E-05
  0.10590099E-04 -0.15734571E-05  0.57889335E-05 -0.24250619E-04  0.57447155E-05
 -0.59055016E-05 -0.16286186E-04  0.46701679E-06  0.16127902E-05 -0.10312737E-05
 -0.73167072E-07 -0.29022256E-06  0.11586278E-05  0.39325254E-06  0.51748654E-06
 -0.32603141E-06 -0.54425547E-05  0.16268428E-04 -0.65830172E-06  0.13057803E-04
 -0.12377238E-04 -0.66313257E-05 -0.51090866E-05  0.35877070E-08 -0.28977860E-05
 -0.16290059E-06  0.91662119E-06  0.58000386E-06  0.63188544E-07 -0.73563334E-06
  0.18248390E-05  0.24428237E-06 -0.72332753E-06 -0.42284382E-06 -0.51085952E-05
 -0.47329156E-05  0.10677449E-04  0.81123252E-05 -0.18712340E-05 -0.84133398E-05
 -0.51785709E-05 -0.10150665E-05  0.13517091E-05  0.25805860E-06 -0.41896212E-06
 -0.49023255E-06  0.79782193E-06 -0.85700742E-07  0.32128445E-06 -0.56144110E-06
  0.20756208E-06  0.10098776E-07  0.81326716E-06 -0.55940727E-06 -0.37019950E-07
 -0.39491424E-06 -0.46042391E-06 -0.21319195E-06 -0.10077602E-05  0.96700640E-07
 -0.60867059E-06  0.25332801E-07 -0.27964231E-06 -0.11905836E-06 -0.13316700E-05
  0.33914633E-06  0.98373355E-06  0.61492433E-06 -0.91400454E-06  0.30720127E-06
  0.59520159E-06  0.54328754E-06  0.20434254E-05 -0.20722944E-06  0.63000659E-06
 -0.50603111E-06  0.51057076E-07 -0.39291912E-06  0.46115590E-06 -0.99087043E-07
 -0.54056626E-05 -0.25150586E-06 -0.12795833E-05  0.68967691E-05 -0.25512207E-05
  0.25576068E-05 -0.15797384E-05 -0.48777281E-05 -0.12079185E-04 -0.26709715E-04
  0.34315096E-04 -0.30487679E-04  0.46896072E-04 -0.17727987E-04  0.59281414E-05
  0.20612051E-04  0.34173135E-04 -0.33370164E-06 -0.11409780E-05  0.83895669E-06
  0.28520595E-05 -0.12646277E-05  0.20861635E-05 -0.46938925E-06  0.12738021E-04
  0.18421114E-05  0.26873757E-05 -0.79485613E-05  0.52657747E-06  0.39227663E-04
 -0.14797590E-04  0.88357737E-05  0.17196707E-04  0.12579749E-04 -0.58346909E-05

 -0.72201174E-06 -0.19487328E-05 -0.52443736E-06  0.26856475E-06 -0.33908150E-06
  0.16538558E-05  0.90104794E-06 -0.49017247E-06 -0.11172172E-05 -0.38532465E-06
  0.16470955E-05 -0.12009672E-05  0.21900753E-06  0.16666389E-05 -0.17018218E-05
  0.64406700E-06  0.15200940E-06 -0.60444583E-07  0.28430156E-04  0.23389050E-04
  0.12116319E-04 -0.37796839E-05  0.32088071E-05  0.19347306E-04 -0.48929719E-05
 -0.19330625E-04 -0.16989926E-04  0.13887872E-06 -0.10513758E-05  0.11898995E-06
  0.27598834E-06 -0.17077608E-05 -0.75657287E-06 -0.18850420E-05 -0.95609217E-07
 -0.17156669E-05  0.59523699E-05  0.62927568E-05  0.13663537E-04  0.11639621E-04
 -0.30853537E-04 -0.19122264E-04  0.56979435E-05 -0.39209078E-05  0.14205474E-04
 -0.46306938E-07  0.12523360E-05 -0.12325502E-05  0.49536663E-06  0.77766252E-06
 -0.12349689E-05  0.95843153E-06  0.24179743E-06 -0.50939858E-06  0.13643668E-05
  0.39954366E-06  0.91107750E-07 -0.93926331E-07  0.14334057E-05  0.79048957E-06
 -0.40179845E-06 -0.25473843E-06  0.13030658E-05  0.25273454E-06  0.82096964E-06
 -0.87915667E-06  0.64897185E-06  0.24484418E-05 -0.92578739E-06 -0.26570942E-06
  0.75294384E-06  0.30281270E-06 -0.57976421E-06  0.33078339E-06 -0.11396180E-05
  0.83849110E-06 -0.16139851E-05 -0.48599769E-06 -0.88294789E-06  0.13821400E-06
 -0.16169037E-05  0.45285877E-06 -0.36482236E-06 -0.15066094E-05 -0.24216828E-06
 -0.30381845E-05  0.31798984E-05 -0.89793900E-06 -0.12978512E-05  0.16182049E-05
  0.65482736E-05 -0.35265483E-05 -0.80033977E-05  0.19662619E-05  0.12834569E-04
 -0.42300897E-06 -0.19134326E-05 -0.69601114E-05  0.38582509E-05  0.38365601E-06
  0.33998196E-05  0.10519871E-05  0.45526182E-07  0.29734340E-05  0.45620052E-07
  0.76925539E-06  0.90628123E-06 -0.21523464E-05 -0.40847022E-06  0.12440630E-04
  0.30754113E-04  0.34803563E-06  0.20298521E-04 -0.13181851E-04 -0.81757535E-05
  0.41730707E-05  0.23180596E-04  0.11973085E-06 -0.16720601E-06  0.45075328E-06
 -0.90314235E-06  0.26760004E-05  0.18462875E-05  0.19641117E-07 -0.29496360E-06
 -0.15427744E-06  0.57007998E-05  0.64611590E-05  0.93094134E-05  0.14899880E-04
  0.26915182E-05 -0.30878684E-04 -0.15137852E-04  0.90911913E-05 -0.69134533E-05
  0.10016856E-05 -0.24728041E-06 -0.70578434E-06  0.93347635E-06  0.24032540E-06
 -0.17086983E-05 -0.10740770E-05  0.89488980E-06 -0.29292927E-06 -0.46949431E-06
  0.65305619E-05  0.78917963E-05 -0.34618423E-05 -0.13214720E-04  0.47598075E-05
  0.84525396E-05 -0.11605534E-04 -0.58648729E-05 -0.46034870E-06  0.86456552E-06
  0.22371423E-06  0.56333081E-06 -0.81569325E-06 -0.77032956E-06 -0.12298108E-05
 -0.94149815E-06 -0.22523186E-06  0.91345407E-06 -0.71722709E-06  0.42333077E-06
  0.73492410E-07 -0.73480099E-06  0.87613049E-06 -0.68630732E-06 -0.79974375E-06
  0.20880169E-05 -0.63853299E-06 -0.26043793E-06  0.27704602E-06  0.10620367E-05
 -0.39578503E-05  0.12937081E-06  0.34375168E-06 -0.39898352E-06  0.16790560E-05
 -0.35688480E-06  0.25168668E-05  0.28341586E-06  0.27836348E-06  0.27149671E-05
  0.14887214E-06  0.43459818E-06 -0.56225082E-06 -0.34544078E-06 -0.46875265E-05
 -0.51006174E-05  0.33929586E-06  0.19201473E-05  0.26309047E-05 -0.92420346E-06
  0.77454105E-05 -0.28635719E-05 -0.25873654E-05 -0.15081110E-04 -0.14253472E-04
  0.38458013E-05 -0.18356386E-04  0.28913043E-04 -0.32195420E-04 -0.41347616E-05
  0.38523385E-04  0.57648632E-04 -0.17648937E-05 -0.41410827E-05  0.11067060E-05
  0.34395977E-06  0.10882940E-05  0.18176981E-05  0.24040095E-05  0.18421114E-05
  0.24634716E-04 -0.25624947E-04 -0.43970260E-04 -0.34292925E-04  0.12573274E-03
 -0.56562678E-04  0.22952176E-04 -0.27017702E-04  0.12200597E-04 -0.37644466E-04

 -0.27565441E-05 -0.55692529E-05  0.99135166E-05 -0.80186554E-05  0.23127259E-04
  0.26660990E-04  0.86755328E-06  0.58562470E-05  0.85471262E-05 -0.10828758E-04
  0.26549145E-04  0.19588435E-04 -0.82505871E-05  0.27322640E-04 -0.19299102E-04
  0.15121260E-04 -0.12744461E-04  0.13649179E-04  0.26382695E-03  0.25511692E-03
 -0.88773804E-04  0.10370743E-02 -0.15951524E-03 -0.58568173E-03 -0.27186745E-03
 -0.45625394E-03 -0.77433401E-03  0.11190913E-04  0.17529463E-04 -0.15460934E-04
  0.19159524E-04  0.31643659E-05  0.19789029E-04  0.10018831E-04 -0.24802173E-05
 -0.22556097E-04 -0.13114154E-04  0.20725000E-03 -0.56284741E-04 -0.88401587E-04
 -0.82609044E-04 -0.23355830E-03  0.62208526E-05  0.66235134E-04 -0.39692478E-03
 -0.20789604E-04  0.25887345E-04 -0.77048642E-05  0.18329787E-04  0.22191932E-04
  0.16201025E-04  0.97210740E-05  0.28643709E-05  0.34367134E-06  0.18194859E-04
 -0.19823562E-04  0.16488579E-04  0.94858202E-05 -0.53421598E-05  0.13113251E-04
  0.47098044E-05 -0.26245996E-05 -0.11827321E-04 -0.17764965E-04 -0.26767871E-04
  0.33539255E-05  0.92049834E-05 -0.14835293E-05  0.73948246E-06 -0.30042850E-05
  0.11139914E-04  0.10905232E-04  0.29249397E-05 -0.44308021E-05  0.24977254E-04
  0.14957821E-04 -0.63585471E-05  0.40823714E-05  0.10552832E-04 -0.75105664E-05
  0.19640263E-04 -0.15288186E-04 -0.31968651E-04  0.17731225E-04  0.10036562E-04
  0.24461619E-04 -0.63776079E-05  0.25654861E-05  0.10607282E-04 -0.14295642E-04
 -0.23023670E-03 -0.18673978E-04  0.12990875E-03 -0.47679114E-04 -0.38708366E-04
  0.12607148E-04 -0.71554956E-04 -0.72499279E-04  0.18968162E-03  0.17850634E-04
  0.39744245E-04  0.50464549E-05 -0.18662008E-04  0.15850056E-04  0.17263718E-04
 -0.36850792E-05 -0.97412482E-05  0.33223048E-04 -0.21324825E-03 -0.26858224E-04
 -0.43204721E-03  0.20361213E-03 -0.11723448E-03  0.68558821E-03 -0.88344150E-05
 -0.40667106E-04  0.18432592E-04 -0.73499013E-06  0.12370173E-04 -0.23781675E-04
  0.23028506E-05 -0.14928697E-04  0.26529484E-04  0.73569791E-06  0.97194626E-05
  0.20432470E-05  0.23689894E-03  0.16213902E-03 -0.20185026E-03 -0.31138039E-03
  0.34255328E-03 -0.18406239E-03  0.25585423E-04 -0.23261377E-03 -0.61538239E-04
 -0.68625118E-05  0.16313821E-04  0.14652475E-04 -0.22540459E-04  0.13127797E-04
  0.26221634E-04 -0.55160727E-05  0.65147100E-07 -0.19306616E-04  0.10898931E-03
  0.13307856E-03 -0.46722063E-04  0.66872794E-04 -0.91888022E-04 -0.11856566E-03
  0.70394660E-05  0.10421288E-03  0.22207388E-03 -0.19298461E-04 -0.18362653E-04
 -0.43011558E-05 -0.14551761E-04  0.19996714E-04 -0.15339026E-05 -0.11759985E-04
 -0.37066387E-05 -0.20610167E-04  0.66025427E-05 -0.36812793E-04 -0.16668470E-05
  0.80017318E-05 -0.11783791E-04  0.45513910E-06  0.18934541E-04 -0.87003498E-05
  0.96071474E-05  0.49317652E-05  0.38703178E-04  0.40322072E-05 -0.20297385E-04
  0.44442523E-04  0.18428433E-04 -0.18673892E-04 -0.79229625E-05  0.26888022E-04
  0.34334653E-05 -0.27871844E-04 -0.93945234E-05  0.18883249E-04  0.15601167E-04
 -0.11567192E-04 -0.11898012E-04  0.11769879E-04  0.15756203E-04  0.81919087E-06
  0.16884179E-04 -0.85397272E-05  0.89889106E-05 -0.59075482E-05 -0.28485204E-04
  0.12664991E-04 -0.43996406E-05 -0.13103437E-05 -0.47765341E-04  0.18064865E-03
  0.18069185E-03 -0.75822989E-04 -0.12531308E-04 -0.36465981E-03  0.48255946E-03
  0.61068714E-03 -0.13648240E-03  0.13871548E-04  0.18444752E-04  0.13502216E-04
  0.25212575E-04 -0.32029701E-04 -0.82631285E-05  0.27919980E-04  0.26873757E-05
 -0.25624947E-04  0.48063188E-02  0.64463170E-03  0.10223196E-02 -0.32171232E-03
  0.14937379E-03  0.29175371E-03 -0.19839409E-04 -0.14311894E-03 -0.30587879E-03

  0.16051261E-05 -0.24501237E-05 -0.10883550E-04 -0.13463279E-04  0.62663351E-04
 -0.11152547E-04 -0.16057039E-05  0.29547491E-05  0.19648864E-04  0.17179565E-04
 -0.32221639E-05  0.16361011E-04  0.12034070E-04 -0.29708232E-04  0.10986340E-05
  0.30822272E-05  0.10620615E-04 -0.56533072E-05 -0.18666267E-03  0.10848583E-03
  0.67911051E-04  0.28123159E-03 -0.31831664E-03 -0.71453414E-04  0.27091333E-03
 -0.27587670E-04 -0.18376193E-03 -0.50984823E-05  0.87204745E-05 -0.19036881E-04
  0.34467808E-05  0.18981467E-04  0.51029391E-05 -0.11149114E-04 -0.52344206E-05
 -0.58407845E-05 -0.14473130E-04  0.32914264E-03  0.16611080E-03  0.27340653E-04
 -0.29212512E-03  0.72414209E-04  0.25720639E-04  0.15536918E-03 -0.17034740E-03
 -0.12907852E-04 -0.35032484E-04  0.16964232E-04 -0.60944939E-05 -0.13243296E-04
  0.23202679E-04  0.13242206E-04 -0.10299974E-04  0.10678230E-04 -0.87613529E-05
  0.32808981E-05 -0.63275813E-05 -0.19594874E-05 -0.15827288E-04  0.83282006E-05
 -0.67299320E-05 -0.85391999E-05 -0.77221523E-05 -0.46832820E-05  0.12361728E-04
  0.65432406E-05 -0.54434942E-05 -0.25750773E-06  0.15406827E-05  0.15425693E-05
  0.94412656E-05 -0.17986999E-05 -0.12523753E-04 -0.30506540E-04 -0.27408677E-05
  0.13064851E-04 -0.13858711E-05 -0.16628937E-04  0.67494575E-05 -0.23562719E-05
  0.60385136E-06 -0.95550942E-05  0.35426214E-05  0.22888325E-04  0.18581973E-04
  0.35177698E-05 -0.19858913E-04  0.18023039E-04  0.12202131E-04  0.92023043E-05
 -0.13425409E-03 -0.53325199E-04  0.16449170E-03  0.13544302E-03  0.14164949E-04
 -0.12466945E-03 -0.19217143E-04 -0.12480653E-03 -0.18098810E-06  0.42941036E-05
 -0.36714705E-04 -0.12579670E-04 -0.96427575E-05 -0.14061409E-05  0.94728855E-05
 -0.17551651E-04 -0.14669074E-05  0.17757809E-04  0.10396001E-03 -0.33361921E-03
 -0.46919566E-03 -0.15236362E-03  0.13882294E-03  0.34938569E-03  0.89707103E-04
 -0.27895775E-04 -0.81740077E-04  0.36992129E-04  0.53235433E-05 -0.11372686E-04
  0.16249373E-04  0.75102825E-05  0.21713752E-04 -0.13498016E-04  0.10584581E-04
 -0.41687880E-05 -0.30646965E-04  0.48242204E-03 -0.15714786E-03 -0.47772803E-03
 -0.82330201E-04  0.10999510E-03  0.51958338E-03  0.53956609E-04 -0.24212137E-03
 -0.27654458E-05 -0.20544113E-04  0.38674268E-05  0.24593949E-05 -0.35752844E-04
  0.20973837E-04 -0.13558447E-04 -0.48351396E-05 -0.42424961E-05 -0.39834631E-04
  0.12487355E-03  0.11567385E-04  0.12459908E-03  0.14834981E-03 -0.13927917E-03
 -0.92746288E-04  0.31810111E-04  0.63709447E-04 -0.11573951E-04 -0.35901240E-04
  0.91732593E-05  0.27976864E-05  0.10527959E-04 -0.14558729E-04 -0.57480313E-05
 -0.41113401E-05 -0.72003000E-05 -0.18769104E-05 -0.25066305E-04  0.36851069E-05
 -0.11452372E-06  0.36150614E-04  0.12432540E-04  0.10371079E-04 -0.34535233E-05
  0.10481977E-04  0.90424089E-05  0.49037010E-04  0.35053139E-04 -0.39552213E-04
  0.53049173E-04  0.23830441E-04  0.26160537E-05  0.28226265E-07  0.52529606E-04
  0.79976924E-05 -0.60852806E-05 -0.17926716E-04  0.47717201E-05 -0.20657775E-04
  0.63402158E-05  0.13300443E-04  0.34407633E-05  0.23989208E-05 -0.99669305E-05
  0.12294229E-04  0.38255367E-05 -0.31789780E-05  0.35942669E-04 -0.70708546E-05
 -0.85180988E-05  0.33790449E-05  0.27793068E-05  0.17771193E-04  0.93600331E-04
  0.34029681E-03 -0.15885347E-03  0.51153138E-03 -0.43616271E-03 -0.11993750E-03
  0.19624540E-03  0.24168612E-03  0.20919771E-04  0.22076999E-04  0.31976821E-04
  0.31949571E-04 -0.35121955E-04 -0.24661921E-04  0.74596983E-05 -0.79485613E-05
 -0.43970260E-04  0.64463170E-03  0.33490134E-02 -0.32147201E-03  0.38653422E-03
  0.30540840E-04 -0.11045292E-03  0.18760840E-03 -0.18257410E-03 -0.35768580E-04

  0.16822544E-04 -0.17869280E-05 -0.34458804E-04  0.68042285E-05 -0.18397553E-05
  0.48977968E-04 -0.15339036E-04  0.11035247E-04 -0.21232979E-05  0.12108273E-04
 -0.74769295E-05  0.26571089E-04  0.98343660E-05  0.43718244E-05 -0.28103778E-04
 -0.15499735E-05  0.47548264E-05  0.16235516E-04 -0.37821248E-03 -0.10293166E-03
 -0.48748516E-04 -0.64895308E-04 -0.67885677E-03 -0.10201904E-04 -0.98859518E-03
 -0.45221659E-03 -0.10798818E-03  0.39567096E-05  0.61118391E-05  0.12433521E-04
  0.14227514E-05 -0.20388598E-04  0.10203490E-04  0.23883143E-04 -0.11623727E-04
  0.25430233E-04 -0.14585136E-03  0.19811707E-03 -0.27201644E-03 -0.16560552E-03
  0.19444930E-03 -0.69959598E-04 -0.54736086E-03 -0.38338292E-03  0.10599958E-03
 -0.21061696E-04 -0.28597091E-04 -0.27620659E-04  0.77236097E-05  0.32036235E-04
 -0.51158624E-05  0.66885250E-06  0.26797726E-04  0.17110141E-04  0.25702441E-04
 -0.25323228E-04  0.56189527E-04  0.32800848E-05  0.41732545E-05 -0.58689940E-05
 -0.75707187E-05  0.22093903E-04  0.12642655E-04  0.41395318E-05  0.12472278E-04
 -0.13174933E-04 -0.82916323E-05 -0.31084528E-04  0.37532037E-04  0.96571339E-05
 -0.26802316E-04 -0.13330583E-05  0.27793401E-04  0.28684852E-04  0.11325990E-04
 -0.14905598E-05 -0.54479839E-05  0.98071465E-05  0.13707367E-04  0.18633883E-04
  0.70708835E-05 -0.99300799E-05 -0.57593678E-05 -0.20186453E-04 -0.14308121E-04
  0.37496281E-04  0.80717761E-05 -0.37419822E-05 -0.17241699E-05  0.10260027E-05
  0.19163645E-03 -0.53532851E-03 -0.50259036E-04  0.45311542E-04 -0.53197915E-03
  0.19864477E-03  0.23848862E-03  0.83592636E-04 -0.11893948E-03  0.29968598E-05
 -0.42022262E-04  0.26209281E-04 -0.69786271E-05 -0.13998665E-04  0.27847782E-04
  0.16681277E-04  0.37597682E-05 -0.18513853E-05 -0.47699614E-03 -0.41418278E-05
 -0.10048078E-03  0.11698270E-03  0.36392032E-05 -0.59683879E-03  0.12817707E-03
  0.48058501E-03  0.46438632E-04 -0.91101015E-05  0.45993879E-04  0.18427708E-05
 -0.26154257E-05 -0.12667827E-04 -0.41664620E-05 -0.13189593E-05  0.46119965E-05
 -0.35517730E-04 -0.39154000E-03  0.33960231E-03 -0.12805673E-03  0.51065102E-03
 -0.46822708E-03 -0.10812324E-02 -0.83966827E-04 -0.20035070E-03 -0.38956026E-04
  0.17092202E-04 -0.15544993E-04  0.23350530E-04 -0.15643811E-04  0.22393147E-04
  0.27216642E-04 -0.19453526E-05  0.13282286E-04 -0.26815122E-04 -0.25298563E-03
 -0.15643093E-03  0.13911389E-03 -0.48546354E-04  0.27157900E-03 -0.64201218E-04
  0.13905582E-03  0.58337965E-04 -0.37184884E-03 -0.37848782E-05 -0.44464944E-04
 -0.37934458E-04  0.21479447E-04  0.57726920E-05 -0.16912547E-04 -0.15181717E-04
 -0.21462911E-04 -0.13836534E-04 -0.37645393E-06  0.46991525E-04  0.49724346E-04
 -0.18269530E-04 -0.12677893E-04  0.26318010E-04  0.75996260E-05 -0.16150153E-04
  0.31761687E-04 -0.69627109E-05  0.81309821E-04  0.16019038E-04 -0.30885391E-04
  0.96913600E-04  0.92305166E-05  0.47579462E-05  0.87180219E-05  0.85205222E-04
  0.15272758E-04 -0.26180793E-04  0.34288017E-04  0.14344548E-04  0.37002894E-05
  0.65442193E-05 -0.10573764E-05 -0.14611688E-04 -0.32075428E-04 -0.18599348E-04
  0.80765821E-05 -0.35487475E-05  0.78341122E-05  0.38642981E-04 -0.31335036E-04
 -0.12632254E-04 -0.31177781E-04  0.30069938E-04  0.32811606E-03 -0.53635491E-03
 -0.39618801E-03  0.15654006E-03  0.48695608E-03 -0.16724677E-03  0.15576958E-03
  0.11667480E-03  0.18027244E-03  0.10741645E-04  0.32171393E-04 -0.59357546E-06
  0.44989205E-04 -0.60132996E-04 -0.38941657E-05 -0.16990114E-04  0.52657747E-06
 -0.34292925E-04  0.10223196E-02 -0.32147201E-03  0.64720555E-02  0.10955442E-02
 -0.24093708E-03 -0.12792978E-03 -0.47135867E-05  0.92705014E-04 -0.39173817E-03

 -0.27052034E-04  0.42450905E-04 -0.19999696E-04  0.27212237E-04  0.39851291E-04
  0.18106052E-04  0.48607897E-05 -0.12529531E-04  0.11090222E-04  0.36666408E-04
 -0.43333085E-04 -0.48452771E-04  0.37334428E-04 -0.69208861E-07 -0.12272663E-04
  0.11240595E-04  0.21507066E-04  0.95445640E-05 -0.71868822E-04 -0.24686257E-03
  0.35844727E-04 -0.19715101E-02  0.40175803E-03  0.89842586E-03  0.40830815E-03
  0.25998469E-03  0.27935802E-03  0.40123843E-04  0.39983413E-04  0.18962894E-04
 -0.14499129E-04  0.16127498E-04  0.31684051E-04  0.39550616E-04 -0.49521737E-04
  0.95400294E-05  0.25787261E-03  0.20215649E-03 -0.18641824E-03  0.16869894E-03
 -0.40936582E-03 -0.34716137E-03 -0.41197104E-03 -0.53731669E-03  0.19040359E-03
 -0.68856575E-05 -0.42572576E-04 -0.23907122E-04 -0.31327708E-04  0.79882499E-04
  0.69261126E-05 -0.81475184E-05  0.35874971E-05  0.98023986E-05  0.10923912E-03
 -0.40871044E-05  0.48389465E-04 -0.80546900E-04 -0.11484516E-04  0.34812752E-04
 -0.50252089E-04 -0.14451995E-04 -0.21680773E-04 -0.11678225E-04 -0.13034940E-04
 -0.23973951E-04 -0.43448237E-04  0.26487727E-04  0.40151109E-04  0.10768284E-04
  0.12024744E-04  0.12330557E-04  0.45407730E-04 -0.47303821E-04 -0.21615516E-04
  0.72060461E-04 -0.45004827E-04 -0.24338061E-04  0.46979900E-04  0.12631118E-04
 -0.53467171E-05  0.30303988E-05  0.41300296E-04 -0.22635422E-06 -0.12329366E-04
 -0.45184386E-05  0.12894584E-04  0.30893936E-04 -0.24546905E-05 -0.13159531E-04
  0.31898404E-04 -0.25313133E-03 -0.26237919E-03  0.45908825E-03 -0.46901710E-03
  0.55026721E-04  0.28782913E-03 -0.78313388E-04 -0.13701245E-03 -0.63933980E-05
 -0.48237170E-04  0.23769274E-04  0.46033274E-04 -0.40133675E-04  0.34009187E-04
  0.13410787E-04 -0.28853803E-04 -0.42376555E-04  0.16169709E-04 -0.35865828E-03
  0.12455477E-03 -0.83623021E-03 -0.62970636E-04 -0.32535819E-03  0.44638798E-03
  0.94389914E-04 -0.55015917E-04  0.36321884E-04 -0.12965859E-04  0.37944535E-05
  0.34084618E-04 -0.21338174E-04 -0.90309126E-06 -0.12692772E-04  0.58551992E-04
  0.45130736E-04 -0.59411444E-03  0.70685438E-03  0.13813924E-03  0.18764820E-02
 -0.32297593E-03 -0.14244926E-02 -0.46166247E-03  0.47688516E-03  0.26077467E-03
  0.54185982E-05 -0.10827990E-04 -0.18180706E-06 -0.32910735E-04  0.35346324E-04
  0.66496607E-05 -0.11239661E-04 -0.46540042E-05 -0.43183871E-04 -0.42575762E-04
  0.28133537E-03  0.13887799E-03  0.56008955E-03  0.22582351E-03 -0.44341469E-03
  0.86142407E-04  0.19059917E-03 -0.51077363E-04 -0.50209187E-04 -0.38257673E-04
 -0.20786201E-04  0.52476374E-04 -0.49246159E-04  0.24737547E-04 -0.16130740E-04
 -0.14984074E-04  0.12519599E-05  0.17492634E-04  0.42327786E-05  0.48046732E-04
  0.13420323E-05 -0.12336075E-04  0.50333183E-04 -0.12508008E-04 -0.18069320E-04
  0.20661016E-04  0.94488014E-05  0.16640467E-03  0.99245611E-04 -0.70819393E-04
  0.16340116E-03  0.48262394E-04  0.48774971E-05  0.13198569E-04  0.17284428E-03
 -0.20197205E-04 -0.11293562E-04  0.43321789E-05 -0.21170359E-04  0.45428879E-04
  0.28773157E-04  0.12934832E-05 -0.37922579E-04 -0.36284391E-04 -0.17169590E-06
 -0.63268072E-05 -0.14205062E-04  0.46585660E-04  0.99570918E-04 -0.15721244E-04
  0.48402938E-04 -0.43247685E-05  0.32086179E-05  0.34610286E-03 -0.70005044E-03
 -0.32681593E-03  0.12079541E-03  0.35388644E-03 -0.21370557E-03  0.27143237E-03
  0.38324406E-03 -0.38889425E-05 -0.27027480E-04 -0.14100188E-03 -0.83986735E-04
  0.12821147E-04  0.11689274E-03  0.29231818E-05  0.35716112E-04  0.39227663E-04
  0.12573274E-03 -0.32171232E-03  0.38653422E-03  0.10955442E-02  0.20875640E-01
 -0.42005388E-02 -0.54785499E-02  0.13494976E-03  0.14746869E-03 -0.14794869E-02

  0.82167973E-07 -0.78182900E-06  0.39499603E-05 -0.62973918E-05 -0.18849964E-04
  0.15326844E-04  0.18563263E-05  0.12688010E-04  0.12274201E-04 -0.76937201E-05
 -0.13053244E-04  0.16985817E-04 -0.73854309E-05 -0.14959054E-04  0.14385233E-04
  0.88397441E-06 -0.13503247E-05 -0.55241621E-05 -0.12545360E-03  0.55792060E-04
 -0.13566406E-03  0.16535124E-03 -0.37796300E-03 -0.46298773E-04 -0.16825836E-03
  0.93839019E-04  0.14025803E-03  0.31536048E-05 -0.10673869E-05  0.23389406E-05
 -0.52801371E-05  0.18501622E-04 -0.13770885E-04  0.21904928E-04  0.21732980E-05
 -0.98569880E-06 -0.78383342E-04  0.20608050E-04 -0.80841235E-04 -0.23504180E-04
  0.30604781E-03  0.30050119E-04  0.99190123E-04  0.22068358E-03 -0.11689263E-03
 -0.64548338E-05  0.15935649E-04  0.24989514E-04  0.13106779E-04 -0.24432715E-04
  0.63364006E-05 -0.20255555E-06  0.23721842E-05 -0.16134735E-04 -0.10364428E-04
 -0.16858438E-05 -0.53421879E-05  0.19752501E-04 -0.89012816E-05 -0.57141022E-05
  0.54033147E-05  0.77357571E-05 -0.19792543E-04 -0.44454517E-05  0.11142641E-05
 -0.22270086E-06  0.13501757E-04 -0.34943500E-04 -0.18378635E-05 -0.15936498E-04
  0.11497987E-05 -0.16373694E-04 -0.12707445E-04  0.66453020E-05  0.61412497E-05
 -0.24476531E-04 -0.18161796E-04  0.15907617E-04 -0.13132532E-04 -0.74152075E-05
  0.77932803E-05 -0.26303498E-05 -0.11667176E-04  0.31945017E-05  0.45077718E-05
  0.25609909E-04 -0.12181201E-04  0.60086102E-05  0.33100961E-05  0.37524579E-05
 -0.95209238E-04  0.46620987E-04  0.62398518E-04 -0.77552015E-04  0.31116857E-04
  0.45508872E-04 -0.13543175E-04 -0.88452231E-04  0.16225352E-03 -0.35666459E-05
 -0.38570546E-05 -0.14316383E-05 -0.28780187E-04  0.54200485E-04 -0.25602695E-04
 -0.94835830E-05 -0.32881562E-05  0.29369054E-04  0.46610152E-04 -0.35367606E-03
 -0.12232208E-03  0.90193966E-04  0.17145891E-03  0.14152875E-03 -0.29759274E-03
 -0.16314155E-03  0.74649449E-04 -0.23312784E-04  0.17896188E-04  0.43041813E-05
  0.19836877E-04 -0.46572953E-04  0.24982134E-05  0.92617690E-06 -0.17244506E-04
  0.13634669E-04  0.43213973E-03 -0.11895707E-03 -0.32803964E-04 -0.28583512E-03
 -0.11443033E-02  0.32021089E-03  0.41379704E-03  0.69835690E-04 -0.70365126E-04
  0.25632447E-05  0.33315506E-04 -0.27004006E-05  0.63961516E-05 -0.33330136E-04
  0.15667874E-04  0.12978034E-04 -0.54754285E-05 -0.35015047E-05 -0.59025444E-05
 -0.34782662E-03  0.53927553E-04 -0.83757041E-04 -0.89639428E-04  0.23293442E-03
 -0.72288987E-04 -0.57323774E-05 -0.16234127E-03  0.29750321E-05  0.80500177E-05
  0.16458321E-04 -0.88982478E-05 -0.30535599E-04  0.24221784E-04  0.81111919E-05
  0.35814713E-05 -0.17015726E-04 -0.30438085E-05 -0.16528366E-04 -0.25582488E-05
  0.87441754E-05 -0.41880180E-04 -0.62495631E-05 -0.29238060E-05  0.64835415E-06
 -0.16429051E-04  0.47957351E-05 -0.14727307E-04 -0.38929178E-04  0.47765041E-05
  0.32982462E-04 -0.42621665E-04 -0.12571445E-04 -0.75647207E-05 -0.46438496E-04
 -0.43815547E-05 -0.51747519E-05 -0.40624570E-05  0.93975317E-05 -0.34585098E-04
  0.53832784E-05  0.16044175E-04  0.13475446E-04  0.99454318E-05 -0.14033049E-04
  0.48855750E-04 -0.18726013E-05 -0.11181869E-04  0.46660180E-05 -0.18799378E-04
 -0.90273532E-05  0.89272112E-05  0.64475345E-05  0.52995282E-04  0.20331301E-04
  0.22858038E-03 -0.80761234E-04  0.46150498E-03  0.34489163E-03 -0.22379930E-04
 -0.94159325E-04 -0.34860593E-03  0.14091172E-04  0.22340481E-04  0.35120454E-04
  0.83232350E-05  0.18648969E-04 -0.43142648E-04  0.11763346E-04 -0.14797590E-04
 -0.56562678E-04  0.14937379E-03  0.30540840E-04 -0.24093708E-03 -0.42005388E-02
  0.48617973E-02 -0.67008510E-03  0.54814464E-03 -0.16709465E-03 -0.84799463E-03

  0.59894372E-05 -0.26952280E-04 -0.39907667E-04  0.32771752E-05 -0.70811171E-05
 -0.43918946E-04 -0.17790255E-04 -0.17009401E-04  0.23098164E-05 -0.23574466E-04
  0.10841057E-04  0.33244659E-04 -0.44947636E-06  0.30445080E-04 -0.22103373E-04
 -0.95624231E-06 -0.23829647E-04 -0.19881278E-04 -0.67819441E-04 -0.63783932E-04
  0.63292992E-04  0.85852116E-03  0.14943911E-03 -0.46821582E-03  0.22668590E-03
 -0.22333043E-03 -0.40424150E-03 -0.16822885E-04 -0.14604686E-04 -0.80242581E-05
  0.29130775E-04 -0.36813054E-04 -0.14440817E-04 -0.33776031E-04  0.14685269E-04
 -0.36917526E-04  0.12332339E-03  0.52460242E-04  0.42028850E-03 -0.38969804E-04
 -0.66855595E-04  0.27994056E-03 -0.13078063E-04 -0.14341763E-04 -0.61676594E-04
 -0.91737218E-05  0.80575854E-06 -0.34738400E-04 -0.90945768E-05  0.23442506E-05
 -0.53566521E-05  0.37634226E-05 -0.14315741E-04  0.44571839E-06 -0.35470562E-04
 -0.33864614E-04  0.51962960E-05  0.30912765E-04  0.21149858E-04 -0.87797291E-05
  0.83015955E-05 -0.32382077E-04  0.12358502E-04  0.65048150E-05  0.23734071E-04
  0.15943532E-04  0.29061453E-04  0.26629556E-05 -0.14130448E-04 -0.57460306E-05
 -0.16883216E-04  0.89807273E-05 -0.20605282E-04  0.59817934E-05  0.10139849E-05
 -0.61246623E-05  0.18056209E-05  0.65018742E-05 -0.15092712E-04  0.16092548E-04
  0.11021801E-04  0.14701993E-04 -0.29110273E-04 -0.19842467E-05 -0.82408349E-05
 -0.46850402E-05  0.10875034E-05  0.44903418E-05  0.92509415E-06  0.15981904E-04
 -0.10299133E-03  0.25367121E-03 -0.45263411E-03 -0.93959584E-04  0.63325080E-03
 -0.42574245E-03 -0.21192120E-03  0.31548196E-03 -0.16381153E-03 -0.15931817E-05
  0.69843012E-05 -0.14941448E-04 -0.17606906E-04  0.31130551E-04  0.37923202E-04
  0.98837783E-05  0.21716156E-04  0.13349312E-04  0.40561393E-03 -0.86780537E-04
 -0.53242427E-03  0.97299459E-04  0.62794285E-04 -0.38004949E-03 -0.16411916E-03
  0.34587092E-03  0.95922415E-04 -0.20306762E-04 -0.20263486E-04 -0.36439221E-04
 -0.17258404E-04  0.27436709E-04  0.15736137E-04  0.59517007E-05 -0.10273411E-04
 -0.66896305E-04  0.19668918E-03 -0.36937578E-03 -0.69334884E-04 -0.29201850E-03
 -0.66089473E-04  0.52963907E-03  0.16452145E-03 -0.32663583E-03 -0.37264811E-03
 -0.88764404E-05  0.54375076E-05 -0.13636547E-04 -0.89632026E-05  0.12533901E-04
  0.18669874E-04 -0.12559930E-04  0.38297438E-05  0.31214553E-04  0.11886520E-04
 -0.24950084E-03  0.29675558E-04 -0.21553748E-03  0.12111730E-03  0.39213870E-03
 -0.33658638E-04  0.80760708E-04  0.47400215E-04  0.25625427E-04  0.18664427E-05
 -0.59350534E-04  0.35831582E-05  0.32117520E-04 -0.59040417E-04  0.37039675E-05
 -0.63976749E-06  0.10064701E-04 -0.26592706E-04 -0.26080374E-04 -0.51281658E-04
 -0.95167848E-05  0.25780924E-04  0.32423650E-04  0.51616277E-05  0.13761127E-04
 -0.28461907E-04  0.19320611E-05 -0.65846677E-04  0.32903568E-05  0.18335255E-04
 -0.79687118E-04  0.64605979E-05  0.12709079E-04 -0.42811226E-05  0.21491652E-04
  0.22570805E-05  0.26593772E-04 -0.16508624E-04  0.18172717E-04  0.54709711E-05
 -0.46716040E-04 -0.48254454E-05  0.17521759E-04  0.40872729E-04 -0.50177908E-05
 -0.38709542E-04 -0.68402126E-05  0.59241872E-05 -0.52293907E-04  0.20448989E-04
 -0.31149677E-05 -0.16277321E-04 -0.18786762E-04 -0.16947865E-03 -0.10751417E-03
 -0.59893149E-04 -0.36011794E-05  0.39749811E-04 -0.16525144E-02 -0.30448191E-03
  0.13591273E-03  0.17613342E-04  0.21204995E-05  0.61892113E-04  0.13134913E-04
 -0.46015196E-05 -0.93018435E-04  0.74095096E-04 -0.98592979E-05  0.88357737E-05
  0.22952176E-04  0.29175371E-03 -0.11045292E-03 -0.12792978E-03 -0.54785499E-02
 -0.67008510E-03  0.98846657E-02 -0.19330499E-03  0.41604548E-03 -0.12883132E-02

 -0.10866926E-05 -0.32416076E-05 -0.59469322E-05  0.26460047E-05  0.35930750E-05
 -0.24768819E-05 -0.26448625E-04  0.15376865E-05  0.12786395E-04  0.26868119E-05
 -0.30467328E-05  0.15244736E-04 -0.97325159E-05 -0.25259819E-04  0.13763858E-04
 -0.15573518E-04 -0.50635288E-05  0.88373400E-05  0.11981073E-03 -0.32291571E-04
  0.16382219E-04 -0.26892314E-03  0.13541670E-05  0.17900302E-03 -0.42462904E-04
  0.63722571E-04 -0.14974932E-04 -0.23253828E-05 -0.17824399E-04 -0.26491256E-05
 -0.39910111E-05  0.57635913E-05  0.83812028E-05  0.72772770E-05  0.46060278E-07
  0.71726526E-05 -0.12137075E-03 -0.39202493E-04 -0.21559882E-03 -0.84217164E-04
 -0.76745976E-05 -0.39664701E-04 -0.20172241E-03 -0.19463351E-03 -0.48471098E-04
 -0.53242513E-05 -0.20492578E-04  0.13661349E-04 -0.65615218E-06  0.24560140E-04
 -0.12143692E-04  0.18496342E-06 -0.36667599E-05  0.11358954E-06 -0.66372925E-05
  0.11960185E-04  0.60081730E-05 -0.75089309E-05 -0.84449021E-05  0.27763224E-04
  0.63314861E-08 -0.70934827E-05 -0.76817006E-05  0.34179885E-05 -0.12875424E-04
 -0.94614964E-05  0.13745962E-05 -0.10246041E-04  0.38789239E-05  0.44106674E-05
  0.19185470E-06  0.18597315E-04 -0.30588713E-05  0.37012507E-05  0.13806397E-05
 -0.50251188E-05 -0.83321845E-05 -0.66750986E-05 -0.50217551E-05 -0.82600515E-05
 -0.86267240E-05 -0.12014105E-04 -0.19590924E-05  0.90112320E-05 -0.11097277E-05
  0.19600203E-04 -0.14486610E-04  0.71915062E-05  0.16005510E-05  0.15356627E-04
  0.32544114E-04 -0.22818387E-04  0.11424279E-03  0.64142651E-04 -0.13976010E-03
  0.39737436E-04 -0.26641747E-04 -0.10964646E-03 -0.80192860E-04 -0.66922298E-05
 -0.77361546E-05 -0.13471127E-04  0.11394421E-05 -0.60810031E-04  0.24660748E-04
 -0.40404827E-05  0.24662008E-05  0.67497925E-05 -0.12079038E-03 -0.43577382E-03
 -0.57049425E-04 -0.22924622E-03 -0.24467306E-03  0.32120210E-03 -0.30739835E-04
  0.22243476E-03  0.12092488E-04  0.92555130E-05  0.83179851E-05 -0.25343644E-05
 -0.60855032E-05 -0.11276591E-05  0.41675214E-05  0.11154725E-05  0.17336263E-04
 -0.21335721E-05  0.83505340E-05  0.37836255E-03  0.64275483E-04  0.44098943E-04
  0.12744767E-03 -0.11649466E-03 -0.24969390E-03 -0.16500667E-04  0.12333607E-03
  0.12659539E-04 -0.32685548E-05  0.18054295E-04 -0.47094254E-07 -0.11590532E-04
  0.95794412E-05  0.54831394E-05  0.90525781E-06  0.29217657E-04 -0.91878828E-04
 -0.15807042E-03 -0.66802170E-04  0.67063164E-04 -0.48841544E-03  0.40402447E-04
  0.25489658E-04 -0.56769765E-04  0.37422842E-04 -0.11655145E-04 -0.60033150E-05
 -0.14748999E-04  0.70160643E-05  0.11386071E-04 -0.35986585E-05  0.38476256E-05
 -0.58004445E-06 -0.97643609E-05 -0.17068363E-04 -0.11358797E-04 -0.62568632E-05
 -0.78939712E-05 -0.23540710E-05 -0.70638993E-05 -0.46215812E-05  0.45333451E-05
 -0.16370939E-04  0.13507009E-04 -0.25203105E-05 -0.10647045E-04  0.11938919E-04
 -0.26471486E-06  0.87922060E-06  0.13499958E-04  0.24190069E-04 -0.10520209E-04
  0.18277165E-04 -0.11033223E-04  0.16196140E-04 -0.22519462E-05  0.10328747E-04
 -0.13569543E-04 -0.12131232E-04 -0.78348021E-05 -0.43168176E-05  0.17018586E-04
  0.17767528E-04  0.94655362E-05  0.67456920E-05 -0.48010539E-04  0.42953809E-07
  0.71389588E-05 -0.18469494E-06 -0.29319885E-04 -0.98385725E-04  0.28533494E-04
  0.63751914E-05 -0.51550630E-04 -0.40035037E-04  0.95871234E-04  0.10177453E-03
  0.10444664E-03  0.76361604E-04 -0.88532700E-05  0.64594744E-05  0.16831319E-04
  0.26024162E-04 -0.28187211E-04 -0.96014990E-05  0.59076372E-05  0.17196707E-04
 -0.27017702E-04 -0.19839409E-04  0.18760840E-03 -0.47135867E-05  0.13494976E-03
  0.54814464E-03 -0.19330499E-03  0.30432613E-02 -0.74607644E-03  0.36710034E-03

 -0.15280365E-04  0.27535438E-05  0.10990942E-04 -0.12391879E-04  0.21550885E-05
 -0.72677169E-06  0.14599808E-04 -0.40027293E-05 -0.14963091E-04 -0.83974354E-05
 -0.19196526E-04 -0.30955109E-04  0.13418463E-04 -0.28223895E-04  0.17469484E-05
 -0.10386364E-04 -0.51430728E-05  0.68633399E-05  0.37779713E-04 -0.29045593E-03
 -0.28582496E-03 -0.13610976E-03  0.37396644E-04 -0.26681281E-04 -0.43121298E-04
  0.22950432E-03  0.45961852E-03  0.14967232E-04 -0.11450612E-04 -0.56244960E-05
 -0.73153898E-05 -0.90335770E-05 -0.16094247E-04 -0.36583931E-05 -0.40772508E-05
 -0.55378740E-05  0.84601417E-04  0.14145697E-03  0.11006520E-03  0.17037812E-04
 -0.33587555E-04 -0.43023709E-03 -0.46985601E-04  0.31915086E-05  0.34306949E-05
 -0.87692877E-05  0.18985024E-04 -0.29714295E-04 -0.14966654E-04 -0.14943227E-04
  0.79749642E-06 -0.42178281E-05 -0.12361781E-04 -0.12963820E-04  0.27027443E-04
 -0.18678592E-04  0.89700934E-05 -0.19033676E-05  0.86271834E-05 -0.41115333E-04
 -0.82418323E-05  0.88960835E-05 -0.81338642E-05 -0.40339248E-05  0.83429683E-05
  0.62079984E-06 -0.16182502E-04  0.27706784E-04 -0.11520112E-04 -0.20907419E-05
 -0.13469389E-05 -0.10143651E-04 -0.50479284E-05  0.14405100E-05 -0.11580095E-04
  0.45376844E-05 -0.26022603E-04  0.21534859E-04  0.85920740E-05  0.12655091E-05
 -0.41731612E-05  0.46232086E-05 -0.15341018E-04 -0.14579491E-04  0.72319940E-05
 -0.17531606E-04  0.18981212E-04  0.10682311E-04 -0.76408443E-05  0.20808740E-04
 -0.16214002E-03  0.14057160E-03 -0.88968737E-04 -0.89516858E-04  0.16035712E-03
  0.22310044E-03 -0.45250852E-04 -0.75684998E-04  0.72657214E-04  0.94304076E-05
 -0.23317870E-04  0.18183937E-04 -0.12672575E-04  0.12244725E-04 -0.89507248E-05
 -0.15633920E-04  0.14590275E-04 -0.13138120E-04  0.24161174E-03 -0.25575041E-04
  0.19527908E-03 -0.21733804E-04  0.52463432E-04  0.24755204E-03  0.39812226E-04
 -0.96721301E-03 -0.21177076E-03 -0.51362340E-05  0.40844997E-05 -0.14378409E-04
  0.12884789E-04 -0.53187112E-05  0.16383348E-05 -0.13389474E-05  0.51443554E-05
 -0.70961775E-05 -0.78000214E-04  0.18441604E-04  0.57799587E-04  0.35075010E-03
  0.13375883E-04 -0.35234514E-03  0.11185825E-03 -0.43794774E-04  0.11232380E-04
 -0.56531074E-05  0.24045741E-05 -0.14219423E-04 -0.45494715E-05 -0.15745706E-04
  0.11952216E-05 -0.91615964E-05 -0.10040508E-04 -0.73745555E-05  0.24322391E-04
 -0.30136597E-04  0.13737135E-03 -0.20072844E-04  0.18751852E-03  0.20803933E-03
 -0.76151351E-04  0.13168084E-03  0.13346267E-03 -0.10888348E-04  0.15761266E-05
  0.62727892E-05 -0.70261740E-05 -0.51437580E-05 -0.76825599E-05  0.63324584E-05
 -0.60378723E-05 -0.22782157E-05 -0.65477620E-05 -0.32789109E-05 -0.34691916E-04
 -0.56240455E-05  0.38416246E-05  0.10652729E-04 -0.67405729E-05  0.89994928E-05
 -0.10440625E-04  0.57846038E-05 -0.25740493E-04 -0.84861037E-05  0.10278439E-04
 -0.38062517E-04 -0.49550896E-05  0.30586220E-04  0.11870291E-05 -0.27288893E-05
  0.51275793E-06  0.12704457E-04 -0.95717065E-05 -0.15755129E-04  0.33657261E-04
 -0.26513648E-05  0.98533283E-05 -0.16449992E-04  0.14779794E-04  0.41429797E-05
  0.14720927E-04  0.22479292E-05 -0.44176079E-05  0.14092418E-04 -0.24562681E-04
  0.88359042E-05 -0.13808615E-04  0.17839237E-06  0.13386292E-04  0.86224713E-04
  0.11714196E-03  0.20183866E-03  0.57258880E-04 -0.88803337E-03 -0.95076227E-04
 -0.23199116E-05 -0.30882960E-03  0.25053264E-05  0.28851031E-04  0.23752229E-04
  0.11691202E-04 -0.23725777E-04  0.13107135E-04  0.23561740E-04  0.12579749E-04
  0.12200597E-04 -0.14311894E-03 -0.18257410E-03  0.92705014E-04  0.14746869E-03
 -0.16709465E-03  0.41604548E-03 -0.74607644E-03  0.45955760E-02  0.63351888E-03

  0.28967477E-05 -0.14054665E-04  0.37738873E-05 -0.16789551E-04  0.22711293E-04
  0.46820127E-05  0.13526154E-04 -0.65219830E-05 -0.15130439E-04  0.11655235E-04
 -0.16986458E-04 -0.13489313E-04 -0.96628053E-05 -0.19826396E-04 -0.25436326E-06
  0.45361241E-05 -0.46605127E-05 -0.32844868E-05 -0.94386404E-05  0.14276773E-03
  0.14384708E-03 -0.24851487E-03  0.16696959E-03 -0.40244086E-04  0.32633258E-03
  0.11812736E-03 -0.17345201E-03 -0.17959767E-04 -0.43653805E-05 -0.14217243E-04
 -0.57595814E-05  0.51224411E-05 -0.33525024E-05 -0.88428170E-05  0.21325362E-04
  0.13272285E-04 -0.22738572E-03 -0.14083825E-03  0.64320041E-05 -0.17382947E-03
  0.21429845E-03 -0.26977908E-03 -0.51352903E-04 -0.21873370E-03 -0.22108057E-03
  0.16142185E-04 -0.21926393E-04  0.42338601E-06 -0.47424738E-05 -0.36629964E-04
 -0.14045363E-04 -0.61732306E-05 -0.58720625E-05  0.21330868E-04  0.20992590E-04
  0.11156389E-04 -0.41109283E-05 -0.40348635E-04  0.32095743E-04  0.49677535E-05
  0.49800800E-05  0.86534561E-05  0.11505037E-04  0.46189301E-06  0.15983610E-04
  0.93761919E-06 -0.32108111E-04  0.54170672E-05 -0.94874146E-05  0.15558197E-04
  0.52272519E-05  0.65512327E-05  0.33027829E-05  0.24039254E-05 -0.48454782E-05
 -0.99274324E-06 -0.29059559E-05 -0.94878815E-05 -0.55338034E-05 -0.88697637E-05
 -0.17691947E-04 -0.11615569E-04  0.92739402E-05 -0.56975135E-05 -0.63553050E-05
 -0.49250982E-05 -0.26930779E-06  0.32453278E-05 -0.20480571E-05 -0.14712799E-05
  0.96817538E-05  0.77634724E-05  0.26220179E-03 -0.13822910E-03 -0.20090081E-03
  0.41815817E-04  0.29097833E-04  0.11259348E-04 -0.90731067E-04  0.21698335E-04
 -0.76240471E-06 -0.86515324E-05  0.31720390E-05 -0.69001193E-04 -0.26644769E-05
 -0.23967022E-04 -0.10155154E-05 -0.14994511E-04 -0.25220926E-03  0.10773796E-03
  0.36635923E-03 -0.83050798E-04 -0.31203742E-04 -0.20791497E-03  0.56244939E-04
 -0.12101465E-03 -0.14529355E-03  0.15584522E-04 -0.66862247E-05 -0.68775875E-05
 -0.32267414E-04  0.25428853E-04  0.10405630E-05 -0.11549765E-04 -0.42723941E-05
 -0.36118850E-04 -0.16121077E-03  0.39607178E-03 -0.31834395E-03 -0.92564508E-04
  0.48192551E-03 -0.51299680E-04 -0.13838723E-03 -0.16006398E-03 -0.27050080E-05
  0.10557114E-04 -0.41096092E-04 -0.57294005E-05  0.62318586E-05 -0.11502048E-04
 -0.21958231E-04  0.20493765E-05  0.16715500E-04  0.23854093E-04  0.26569490E-04
  0.53210553E-03 -0.28119928E-03  0.59400482E-04 -0.43914710E-03 -0.13852042E-04
  0.90884645E-04 -0.12967768E-03  0.96259510E-04 -0.98077728E-05  0.16754683E-04
  0.74116655E-05 -0.12205992E-04  0.22302387E-04 -0.35339296E-04  0.39960190E-05
  0.51214407E-05  0.71601703E-05  0.27739734E-05  0.70415226E-05 -0.24483441E-04
 -0.21065280E-04  0.36637623E-04 -0.42467339E-04 -0.84059415E-05 -0.71805323E-06
  0.20514050E-04 -0.16490838E-04 -0.92496843E-04 -0.61688796E-04  0.52819163E-04
 -0.10423756E-03 -0.16938078E-06  0.10742456E-05  0.77854769E-05 -0.81828956E-04
  0.10610226E-04  0.11021128E-04  0.22124613E-04 -0.23060129E-04 -0.17832740E-04
 -0.96488304E-05 -0.57705025E-05 -0.13378293E-04 -0.30721772E-04  0.14363297E-04
  0.94312936E-05  0.74002340E-05 -0.14550391E-04 -0.34814307E-04 -0.25388429E-04
 -0.48981832E-04 -0.97448691E-06 -0.59635117E-05  0.83210089E-04  0.25700387E-03
 -0.12676869E-03  0.66268094E-04 -0.21128097E-03  0.17061178E-03 -0.17140571E-03
 -0.38983549E-03  0.25537445E-03  0.27430600E-04  0.77358716E-04  0.28873486E-04
  0.29398975E-04 -0.67276331E-04 -0.10002494E-04 -0.20706423E-04 -0.58346909E-05
 -0.37644466E-04 -0.30587879E-03 -0.35768580E-04 -0.39173817E-03 -0.14794869E-02
 -0.84799463E-03 -0.12883132E-02  0.36710034E-03  0.63351888E-03  0.50217605E-02


;

# ===========
# Reflections
# ===========

_diffrn_radiation_wavelength        0.710730

_shelx_F_calc_maximum               155.395472

_reflns_d_resolution_high           3.610254
_reflns_d_resolution_low            0.801354
_reflns_limit_h_max                 4
_reflns_limit_h_min                 -4
_reflns_limit_k_max                 23
_reflns_limit_k_min                 1
_reflns_limit_l_max                 16
_reflns_limit_l_min                 1
_reflns_number_gt                   904
_reflns_number_total                904
_reflns_threshold_expression        'F>0 & F/u(F)>3.0 & |F_calc|>10^-3'

_reflns_special_details
;
* Specify symmetry and Friedel pair averaging *

. Only reflections which satisfy the threshold expression
  are listed below, and only they are considered observed,
  thus the *_gt, *_all, & *_total data are always the same
;

# ============
# Bond lengths
# ============

loop_
 _geom_bond_atom_site_label_1
 _geom_bond_site_symmetry_1
 _geom_bond_atom_site_label_2
 _geom_bond_site_symmetry_2
 _geom_bond_distance
 _geom_bond_publ_flag
   O4  .   C4  .  1.208(3)  yes
   O9  .   C9  .  1.289(4)  yes
  O10  .  C10  .  1.223(5)  yes
   O9  .   H9  .   1.22(4)  yes
  O10  .   H9  .   1.27(4)  yes
   C1  .   C2  .  1.401(5)   yes
   C1  .  C9A  .  1.442(4)   yes
   C1  .  C10  .  1.412(5)   yes
   C2  .   C3  .  1.425(5)   yes
   C3  .  C3A  .  1.393(5)   yes
  C3A  .   C4  .  1.464(4)   yes
  C3A  .  C9A  .  1.426(4)   yes
   C4  .  C4A  .  1.496(5)   yes
  C4A  .   C5  .  1.385(5)   yes
  C4A  .  C8A  .  1.412(4)   yes
   C5  .   C6  .  1.379(6)   yes
   C6  .   C7  .  1.390(5)   yes
   C7  .   C8  .  1.387(5)   yes
   C8  .  C8A  .  1.386(5)   yes
  C8A  .   C9  .  1.468(5)   yes
   C9  .  C9A  .  1.388(4)   yes
   C2  .   H2  .    1.10(5)  yes
   C3  .   H3  .    1.16(2)  yes
   C5  .   H5  .    1.03(3)  yes
   C6  .   H6  .    1.02(4)  yes
   C7  .   H7  .    1.00(4)  yes
   C8  .   H8  .    1.15(3)  yes
  C10  .  H10  .    0.97(5)  yes

# ===========
# Bond Angles
# ===========

loop_
 _geom_angle_atom_site_label_1
 _geom_angle_site_symmetry_1
 _geom_angle_atom_site_label_2
 _geom_angle_site_symmetry_2
 _geom_angle_atom_site_label_3
 _geom_angle_site_symmetry_3
 _geom_angle
 _geom_angle_publ_flag
   O4  .   C4  .  C3A  .        122.8(3)  yes
   O4  .   C4  .  C4A  .        121.8(3)  yes
   O9  .   C9  .  C8A  .        117.7(3)  yes
   O9  .   C9  .  C9A  .        122.8(3)  yes
  O10  .  C10  .   C1  .        124.9(4)  yes
  O10  .  C10  .  H10  .          114(3)  yes
   O9  .   H9  .  O10  .          174(3)  yes
   C9  .   O9  .   H9  .       107.8(18)  yes
  C10  .  O10  .   H9  .       109.6(18)  yes
   C1  .   C2  .   C3  .        109.1(4)  yes
   C1  .  C9A  .  C3A  .        106.7(3)  yes
   C1  .  C9A  .   C9  .        131.4(3)  yes
   C2  .   C1  .  C9A  .        107.4(3)  yes
   C2  .   C1  .  C10  .        125.4(4)  yes
   C2  .   C3  .  C3A  .        107.5(3)  yes
   C3  .  C3A  .   C4  .        129.1(3)  yes
   C3  .  C3A  .  C9A  .        109.3(3)  yes
  C3A  .   C4  .  C4A  .        115.4(3)  yes
  C3A  .  C9A  .   C9  .        121.9(3)  yes
   C4  .  C3A  .  C9A  .        121.7(3)  yes
   C4  .  C4A  .   C5  .        119.5(3)  yes
   C4  .  C4A  .  C8A  .        121.6(3)  yes
  C4A  .   C5  .   C6  .        121.1(4)  yes
  C4A  .  C8A  .   C8  .        119.9(3)  yes
  C4A  .  C8A  .   C9  .        120.0(3)  yes
   C5  .  C4A  .  C8A  .        119.0(3)  yes
   C5  .   C6  .   C7  .        119.8(4)  yes
   C6  .   C7  .   C8  .        120.2(4)  yes
   C7  .   C8  .  C8A  .        120.1(4)  yes
   C8  .  C8A  .   C9  .        120.1(3)  yes
  C8A  .   C9  .  C9A  .        119.5(3)  yes
  C9A  .   C1  .  C10  .        127.1(3)  yes
   C1  .   C2  .   H2  .       125.4(18)  yes
   C1  .  C10  .  H10  .        120(3)    yes
   C2  .   C3  .   H3  .       122.8(19)  yes
   C3  .   C2  .   H2  .       125.4(18)  yes
  C3A  .   C3  .   H3  .       129.6(19)  yes
  C4A  .   C5  .   H5  .       122.6(19)  yes
   C5  .   C6  .   H6  .        120(2)    yes
   C6  .   C5  .   H5  .       115.8(19)  yes
   C6  .   C7  .   H7  .        120(2)    yes
   C7  .   C6  .   H6  .        121(2)    yes
   C7  .   C8  .   H8  .       117.7(14)  yes
   C8  .   C7  .   H7  .        120(2)    yes
  C8A  .   C8  .   H8  .       122.1(14)  yes
